
******************************directory****************************
spec_dir: /home/cuihongwei/experiment/mcpat-gem5-master/spec2006
run_dir:  /home/cuihongwei/experiment/simpoint/401.bzip2/arm-401.bzip2-input1-190517-230243/run
gem5_dir: /home/cuihongwei/experiment/experiment-gem5/raw-gem5
gem5_output_dir: /home/cuihongwei/experiment/simpoint/401.bzip2/arm-401.bzip2-input1-190517-230243
benchmark_output:/home/cuihongwei/experiment/simpoint/401.bzip2/arm-401.bzip2-input1-190517-230243

******************************benchmark****************************
target:     401.bzip2
executable: bzip2
args:       input.source 280
input:      
output:     /home/cuihongwei/experiment/simpoint/401.bzip2/arm-401.bzip2-input1-190517-230243/run/input.source.out
errout:     /home/cuihongwei/experiment/simpoint/401.bzip2/arm-401.bzip2-input1-190517-230243/run/input.source.err

******************************gem5****************************
arch:       /home/cuihongwei/experiment/experiment-gem5/raw-gem5/build/ARM/gem5.opt
config:     /home/cuihongwei/experiment/experiment-gem5/raw-gem5/configs/example/se.py
args:       --simpoint-profile --simpoint-interval=100000000 --maxinsts=900000000000 --cpu-type=NonCachingSimpleCPU --mem-type=SimpleMemory --mem-size=8GB

******************************simulation****************************
start time:(year-mon-day hour-minute-second)19-05-17 23-02-43
gem5 Simulator System.  http://gem5.org
gem5 is copyrighted software; use the --copyright option for details.

gem5 compiled May 17 2019 22:58:52
gem5 started May 17 2019 23:02:43
gem5 executing on mprc-R730, pid 44632
command line: /home/cuihongwei/experiment/experiment-gem5/raw-gem5/build/ARM/gem5.opt --outdir=/home/cuihongwei/experiment/simpoint/401.bzip2/arm-401.bzip2-input1-190517-230243 --debug-flags=ShowRunning /home/cuihongwei/experiment/experiment-gem5/raw-gem5/configs/example/se.py --simpoint-profile --simpoint-interval=100000000 --maxinsts=900000000000 --cpu-type=NonCachingSimpleCPU --mem-type=SimpleMemory --mem-size=8GB --cmd=bzip2 '--options=input.source 280' --output=/home/cuihongwei/experiment/simpoint/401.bzip2/arm-401.bzip2-input1-190517-230243/run/input.source.out --input= --errout=/home/cuihongwei/experiment/simpoint/401.bzip2/arm-401.bzip2-input1-190517-230243/run/input.source.err

Global frequency set at 1000000000000 ticks per second
**** REAL SIMULATION ****
      0: system.cpu: Running Insts:               0
5000204500: system.cpu: Running Insts:        10000000
10000204500: system.cpu: Running Insts:        20000000
15000204500: system.cpu: Running Insts:        30000000
20000204500: system.cpu: Running Insts:        40000000
25000204500: system.cpu: Running Insts:        50000000
30000204500: system.cpu: Running Insts:        60000000
35000204500: system.cpu: Running Insts:        70000000
40000204500: system.cpu: Running Insts:        80000000
45000204500: system.cpu: Running Insts:        90000000
50000206500: system.cpu: Running Insts:       100000000
55000206500: system.cpu: Running Insts:       110000000
60000207000: system.cpu: Running Insts:       120000000
65000207000: system.cpu: Running Insts:       130000000
70000207000: system.cpu: Running Insts:       140000000
75000207000: system.cpu: Running Insts:       150000000
80000207000: system.cpu: Running Insts:       160000000
85000207000: system.cpu: Running Insts:       170000000
90000207000: system.cpu: Running Insts:       180000000
95000207000: system.cpu: Running Insts:       190000000
100000207000: system.cpu: Running Insts:       200000000
105000207000: system.cpu: Running Insts:       210000000
110000207000: system.cpu: Running Insts:       220000000
115000207000: system.cpu: Running Insts:       230000000
120000207000: system.cpu: Running Insts:       240000000
125000207500: system.cpu: Running Insts:       250000000
130000207500: system.cpu: Running Insts:       260000000
135000207500: system.cpu: Running Insts:       270000000
140000207500: system.cpu: Running Insts:       280000000
145000207500: system.cpu: Running Insts:       290000000
150000207500: system.cpu: Running Insts:       300000000
155000207500: system.cpu: Running Insts:       310000000
160000207500: system.cpu: Running Insts:       320000000
165000207500: system.cpu: Running Insts:       330000000
170000207500: system.cpu: Running Insts:       340000000
175000207500: system.cpu: Running Insts:       350000000
180000207500: system.cpu: Running Insts:       360000000
185000207500: system.cpu: Running Insts:       370000000
190000207500: system.cpu: Running Insts:       380000000
195000207500: system.cpu: Running Insts:       390000000
200000207500: system.cpu: Running Insts:       400000000
205000207500: system.cpu: Running Insts:       410000000
210000207500: system.cpu: Running Insts:       420000000
215000207500: system.cpu: Running Insts:       430000000
220000207500: system.cpu: Running Insts:       440000000
225000207500: system.cpu: Running Insts:       450000000
230000207500: system.cpu: Running Insts:       460000000
235000207500: system.cpu: Running Insts:       470000000
240000207500: system.cpu: Running Insts:       480000000
245000207500: system.cpu: Running Insts:       490000000
250000207500: system.cpu: Running Insts:       500000000
255000207500: system.cpu: Running Insts:       510000000
260000207500: system.cpu: Running Insts:       520000000
265000207500: system.cpu: Running Insts:       530000000
270000207500: system.cpu: Running Insts:       540000000
275000207500: system.cpu: Running Insts:       550000000
280000207500: system.cpu: Running Insts:       560000000
285000207500: system.cpu: Running Insts:       570000000
290000207500: system.cpu: Running Insts:       580000000
295000207500: system.cpu: Running Insts:       590000000
300000207500: system.cpu: Running Insts:       600000000
305000207500: system.cpu: Running Insts:       610000000
310000207500: system.cpu: Running Insts:       620000000
315000207500: system.cpu: Running Insts:       630000000
320000207500: system.cpu: Running Insts:       640000000
325000207500: system.cpu: Running Insts:       650000000
330000207500: system.cpu: Running Insts:       660000000
335000207500: system.cpu: Running Insts:       670000000
340000207500: system.cpu: Running Insts:       680000000
345000207500: system.cpu: Running Insts:       690000000
350000207500: system.cpu: Running Insts:       700000000
355000207500: system.cpu: Running Insts:       710000000
360000207500: system.cpu: Running Insts:       720000000
365000207500: system.cpu: Running Insts:       730000000
370000207500: system.cpu: Running Insts:       740000000
375000207500: system.cpu: Running Insts:       750000000
380000207500: system.cpu: Running Insts:       760000000
385000207500: system.cpu: Running Insts:       770000000
390000207500: system.cpu: Running Insts:       780000000
395000207500: system.cpu: Running Insts:       790000000
400000207500: system.cpu: Running Insts:       800000000
405000207500: system.cpu: Running Insts:       810000000
410000207500: system.cpu: Running Insts:       820000000
415000207500: system.cpu: Running Insts:       830000000
420000207500: system.cpu: Running Insts:       840000000
425000207500: system.cpu: Running Insts:       850000000
430000207500: system.cpu: Running Insts:       860000000
435000207500: system.cpu: Running Insts:       870000000
440000207500: system.cpu: Running Insts:       880000000
445000207500: system.cpu: Running Insts:       890000000
450000207500: system.cpu: Running Insts:       900000000
455000207500: system.cpu: Running Insts:       910000000
460000207500: system.cpu: Running Insts:       920000000
465000207500: system.cpu: Running Insts:       930000000
470000207500: system.cpu: Running Insts:       940000000
475000207500: system.cpu: Running Insts:       950000000
480000207500: system.cpu: Running Insts:       960000000
485000207500: system.cpu: Running Insts:       970000000
490000207500: system.cpu: Running Insts:       980000000
495000207500: system.cpu: Running Insts:       990000000
500000207500: system.cpu: Running Insts:      1000000000
505000207500: system.cpu: Running Insts:      1010000000
510000207500: system.cpu: Running Insts:      1020000000
515000207500: system.cpu: Running Insts:      1030000000
520000207500: system.cpu: Running Insts:      1040000000
525000207500: system.cpu: Running Insts:      1050000000
530000207500: system.cpu: Running Insts:      1060000000
535000207500: system.cpu: Running Insts:      1070000000
540000207500: system.cpu: Running Insts:      1080000000
545000207500: system.cpu: Running Insts:      1090000000
550000207500: system.cpu: Running Insts:      1100000000
555000207500: system.cpu: Running Insts:      1110000000
560000207500: system.cpu: Running Insts:      1120000000
565000207500: system.cpu: Running Insts:      1130000000
570000207500: system.cpu: Running Insts:      1140000000
575000207500: system.cpu: Running Insts:      1150000000
580000207500: system.cpu: Running Insts:      1160000000
585000207500: system.cpu: Running Insts:      1170000000
590000207500: system.cpu: Running Insts:      1180000000
595000207500: system.cpu: Running Insts:      1190000000
600000207500: system.cpu: Running Insts:      1200000000
605000207500: system.cpu: Running Insts:      1210000000
610000207500: system.cpu: Running Insts:      1220000000
615000207500: system.cpu: Running Insts:      1230000000
620000207500: system.cpu: Running Insts:      1240000000
625000207500: system.cpu: Running Insts:      1250000000
630000207500: system.cpu: Running Insts:      1260000000
635000207500: system.cpu: Running Insts:      1270000000
640000207500: system.cpu: Running Insts:      1280000000
645000207500: system.cpu: Running Insts:      1290000000
650000207500: system.cpu: Running Insts:      1300000000
655000207500: system.cpu: Running Insts:      1310000000
660000207500: system.cpu: Running Insts:      1320000000
665000207500: system.cpu: Running Insts:      1330000000
670000207500: system.cpu: Running Insts:      1340000000
675000207500: system.cpu: Running Insts:      1350000000
680000207500: system.cpu: Running Insts:      1360000000
685000207500: system.cpu: Running Insts:      1370000000
690000207500: system.cpu: Running Insts:      1380000000
695000207500: system.cpu: Running Insts:      1390000000
700000207500: system.cpu: Running Insts:      1400000000
705000207500: system.cpu: Running Insts:      1410000000
710000207500: system.cpu: Running Insts:      1420000000
715000207500: system.cpu: Running Insts:      1430000000
720000207500: system.cpu: Running Insts:      1440000000
725000207500: system.cpu: Running Insts:      1450000000
730000207500: system.cpu: Running Insts:      1460000000
735000207500: system.cpu: Running Insts:      1470000000
740000207500: system.cpu: Running Insts:      1480000000
745000207500: system.cpu: Running Insts:      1490000000
750000207500: system.cpu: Running Insts:      1500000000
755000207500: system.cpu: Running Insts:      1510000000
760000207500: system.cpu: Running Insts:      1520000000
765000207500: system.cpu: Running Insts:      1530000000
770000207500: system.cpu: Running Insts:      1540000000
775000207500: system.cpu: Running Insts:      1550000000
780000207500: system.cpu: Running Insts:      1560000000
785000207500: system.cpu: Running Insts:      1570000000
790000207500: system.cpu: Running Insts:      1580000000
795000207500: system.cpu: Running Insts:      1590000000
800000207500: system.cpu: Running Insts:      1600000000
805000207500: system.cpu: Running Insts:      1610000000
810000207500: system.cpu: Running Insts:      1620000000
815000207500: system.cpu: Running Insts:      1630000000
820000207500: system.cpu: Running Insts:      1640000000
825000207500: system.cpu: Running Insts:      1650000000
830000207500: system.cpu: Running Insts:      1660000000
835000207500: system.cpu: Running Insts:      1670000000
840000207500: system.cpu: Running Insts:      1680000000
845000207500: system.cpu: Running Insts:      1690000000
850000207500: system.cpu: Running Insts:      1700000000
855000207500: system.cpu: Running Insts:      1710000000
860000207500: system.cpu: Running Insts:      1720000000
865000207500: system.cpu: Running Insts:      1730000000
870000207500: system.cpu: Running Insts:      1740000000
875000207500: system.cpu: Running Insts:      1750000000
880000207500: system.cpu: Running Insts:      1760000000
885000207500: system.cpu: Running Insts:      1770000000
890000207500: system.cpu: Running Insts:      1780000000
895000207500: system.cpu: Running Insts:      1790000000
900000207500: system.cpu: Running Insts:      1800000000
905000207500: system.cpu: Running Insts:      1810000000
910000207500: system.cpu: Running Insts:      1820000000
915000207500: system.cpu: Running Insts:      1830000000
920000207500: system.cpu: Running Insts:      1840000000
925000207500: system.cpu: Running Insts:      1850000000
930000207500: system.cpu: Running Insts:      1860000000
935000207500: system.cpu: Running Insts:      1870000000
940000207500: system.cpu: Running Insts:      1880000000
945000207500: system.cpu: Running Insts:      1890000000
950000207500: system.cpu: Running Insts:      1900000000
955000207500: system.cpu: Running Insts:      1910000000
960000207500: system.cpu: Running Insts:      1920000000
965000207500: system.cpu: Running Insts:      1930000000
970000207500: system.cpu: Running Insts:      1940000000
975000207500: system.cpu: Running Insts:      1950000000
980000207500: system.cpu: Running Insts:      1960000000
985000207500: system.cpu: Running Insts:      1970000000
990000207500: system.cpu: Running Insts:      1980000000
995000207500: system.cpu: Running Insts:      1990000000
1000000207500: system.cpu: Running Insts:      2000000000
1005000207500: system.cpu: Running Insts:      2010000000
1010000207500: system.cpu: Running Insts:      2020000000
1015000207500: system.cpu: Running Insts:      2030000000
1020000207500: system.cpu: Running Insts:      2040000000
1025000207500: system.cpu: Running Insts:      2050000000
1030000207500: system.cpu: Running Insts:      2060000000
1035000207500: system.cpu: Running Insts:      2070000000
1040000207500: system.cpu: Running Insts:      2080000000
1045000207500: system.cpu: Running Insts:      2090000000
1050000207500: system.cpu: Running Insts:      2100000000
1055000207500: system.cpu: Running Insts:      2110000000
1060000207500: system.cpu: Running Insts:      2120000000
1065000207500: system.cpu: Running Insts:      2130000000
1070000207500: system.cpu: Running Insts:      2140000000
1075000207500: system.cpu: Running Insts:      2150000000
1080000207500: system.cpu: Running Insts:      2160000000
1085000207500: system.cpu: Running Insts:      2170000000
1090000207500: system.cpu: Running Insts:      2180000000
1095000207500: system.cpu: Running Insts:      2190000000
1100000207500: system.cpu: Running Insts:      2200000000
1105000207500: system.cpu: Running Insts:      2210000000
1110000207500: system.cpu: Running Insts:      2220000000
1115000207500: system.cpu: Running Insts:      2230000000
1120000207500: system.cpu: Running Insts:      2240000000
1125000207500: system.cpu: Running Insts:      2250000000
1130000207500: system.cpu: Running Insts:      2260000000
1135000207500: system.cpu: Running Insts:      2270000000
1140000207500: system.cpu: Running Insts:      2280000000
1145000207500: system.cpu: Running Insts:      2290000000
1150000207500: system.cpu: Running Insts:      2300000000
1155000207500: system.cpu: Running Insts:      2310000000
1160000207500: system.cpu: Running Insts:      2320000000
1165000207500: system.cpu: Running Insts:      2330000000
1170000207500: system.cpu: Running Insts:      2340000000
1175000207500: system.cpu: Running Insts:      2350000000
1180000207500: system.cpu: Running Insts:      2360000000
1185000207500: system.cpu: Running Insts:      2370000000
1190000207500: system.cpu: Running Insts:      2380000000
1195000207500: system.cpu: Running Insts:      2390000000
1200000207500: system.cpu: Running Insts:      2400000000
1205000207500: system.cpu: Running Insts:      2410000000
1210000207500: system.cpu: Running Insts:      2420000000
1215000207500: system.cpu: Running Insts:      2430000000
1220000207500: system.cpu: Running Insts:      2440000000
1225000207500: system.cpu: Running Insts:      2450000000
1230000207500: system.cpu: Running Insts:      2460000000
1235000207500: system.cpu: Running Insts:      2470000000
1240000207500: system.cpu: Running Insts:      2480000000
1245000207500: system.cpu: Running Insts:      2490000000
1250000207500: system.cpu: Running Insts:      2500000000
1255000207500: system.cpu: Running Insts:      2510000000
1260000207500: system.cpu: Running Insts:      2520000000
1265000207500: system.cpu: Running Insts:      2530000000
1270000207500: system.cpu: Running Insts:      2540000000
1275000207500: system.cpu: Running Insts:      2550000000
1280000207500: system.cpu: Running Insts:      2560000000
1285000207500: system.cpu: Running Insts:      2570000000
1290000207500: system.cpu: Running Insts:      2580000000
1295000207500: system.cpu: Running Insts:      2590000000
1300000207500: system.cpu: Running Insts:      2600000000
1305000207500: system.cpu: Running Insts:      2610000000
1310000207500: system.cpu: Running Insts:      2620000000
1315000207500: system.cpu: Running Insts:      2630000000
1320000207500: system.cpu: Running Insts:      2640000000
1325000207500: system.cpu: Running Insts:      2650000000
1330000207500: system.cpu: Running Insts:      2660000000
1335000207500: system.cpu: Running Insts:      2670000000
1340000207500: system.cpu: Running Insts:      2680000000
1345000207500: system.cpu: Running Insts:      2690000000
1350000207500: system.cpu: Running Insts:      2700000000
1355000207500: system.cpu: Running Insts:      2710000000
1360000207500: system.cpu: Running Insts:      2720000000
1365000207500: system.cpu: Running Insts:      2730000000
1370000207500: system.cpu: Running Insts:      2740000000
1375000207500: system.cpu: Running Insts:      2750000000
1380000207500: system.cpu: Running Insts:      2760000000
1385000207500: system.cpu: Running Insts:      2770000000
1390000207500: system.cpu: Running Insts:      2780000000
1395000207500: system.cpu: Running Insts:      2790000000
1400000207500: system.cpu: Running Insts:      2800000000
1405000207500: system.cpu: Running Insts:      2810000000
1410000207500: system.cpu: Running Insts:      2820000000
1415000207500: system.cpu: Running Insts:      2830000000
1420000207500: system.cpu: Running Insts:      2840000000
1425000207500: system.cpu: Running Insts:      2850000000
1430000207500: system.cpu: Running Insts:      2860000000
1435000207500: system.cpu: Running Insts:      2870000000
1440000207500: system.cpu: Running Insts:      2880000000
1445000207500: system.cpu: Running Insts:      2890000000
1450000207500: system.cpu: Running Insts:      2900000000
1455000207500: system.cpu: Running Insts:      2910000000
1460000207500: system.cpu: Running Insts:      2920000000
1465000207500: system.cpu: Running Insts:      2930000000
1470000207500: system.cpu: Running Insts:      2940000000
1475000207500: system.cpu: Running Insts:      2950000000
1480000207500: system.cpu: Running Insts:      2960000000
1485000207500: system.cpu: Running Insts:      2970000000
1490000207500: system.cpu: Running Insts:      2980000000
1495000207500: system.cpu: Running Insts:      2990000000
1500000207500: system.cpu: Running Insts:      3000000000
1505000207500: system.cpu: Running Insts:      3010000000
1510000207500: system.cpu: Running Insts:      3020000000
1515000207500: system.cpu: Running Insts:      3030000000
1520000207500: system.cpu: Running Insts:      3040000000
1525000207500: system.cpu: Running Insts:      3050000000
1530000207500: system.cpu: Running Insts:      3060000000
1535000207500: system.cpu: Running Insts:      3070000000
1540000207500: system.cpu: Running Insts:      3080000000
1545000207500: system.cpu: Running Insts:      3090000000
1550000207500: system.cpu: Running Insts:      3100000000
1555000207500: system.cpu: Running Insts:      3110000000
1560000207500: system.cpu: Running Insts:      3120000000
1565000207500: system.cpu: Running Insts:      3130000000
1570000207500: system.cpu: Running Insts:      3140000000
1575000207500: system.cpu: Running Insts:      3150000000
1580000207500: system.cpu: Running Insts:      3160000000
1585000207500: system.cpu: Running Insts:      3170000000
1590000207500: system.cpu: Running Insts:      3180000000
1595000207500: system.cpu: Running Insts:      3190000000
1600000207500: system.cpu: Running Insts:      3200000000
1605000207500: system.cpu: Running Insts:      3210000000
1610000207500: system.cpu: Running Insts:      3220000000
1615000207500: system.cpu: Running Insts:      3230000000
1620000207500: system.cpu: Running Insts:      3240000000
1625000207500: system.cpu: Running Insts:      3250000000
1630000207500: system.cpu: Running Insts:      3260000000
1635000207500: system.cpu: Running Insts:      3270000000
1640000207500: system.cpu: Running Insts:      3280000000
1645000207500: system.cpu: Running Insts:      3290000000
1650000207500: system.cpu: Running Insts:      3300000000
1655000207500: system.cpu: Running Insts:      3310000000
1660000207500: system.cpu: Running Insts:      3320000000
1665000207500: system.cpu: Running Insts:      3330000000
1670000207500: system.cpu: Running Insts:      3340000000
1675000207500: system.cpu: Running Insts:      3350000000
1680000207500: system.cpu: Running Insts:      3360000000
1685000207500: system.cpu: Running Insts:      3370000000
1690000207500: system.cpu: Running Insts:      3380000000
1695000207500: system.cpu: Running Insts:      3390000000
1700000207500: system.cpu: Running Insts:      3400000000
1705000207500: system.cpu: Running Insts:      3410000000
1710000207500: system.cpu: Running Insts:      3420000000
1715000207500: system.cpu: Running Insts:      3430000000
1720000207500: system.cpu: Running Insts:      3440000000
1725000207500: system.cpu: Running Insts:      3450000000
1730000207500: system.cpu: Running Insts:      3460000000
1735000207500: system.cpu: Running Insts:      3470000000
1740000207500: system.cpu: Running Insts:      3480000000
1745000207500: system.cpu: Running Insts:      3490000000
1750000207500: system.cpu: Running Insts:      3500000000
1755000207500: system.cpu: Running Insts:      3510000000
1760000207500: system.cpu: Running Insts:      3520000000
1765000207500: system.cpu: Running Insts:      3530000000
1770000207500: system.cpu: Running Insts:      3540000000
1775000207500: system.cpu: Running Insts:      3550000000
1780000207500: system.cpu: Running Insts:      3560000000
1785000207500: system.cpu: Running Insts:      3570000000
1790000207500: system.cpu: Running Insts:      3580000000
1795000207500: system.cpu: Running Insts:      3590000000
1800000207500: system.cpu: Running Insts:      3600000000
1805000207500: system.cpu: Running Insts:      3610000000
1810000207500: system.cpu: Running Insts:      3620000000
1815000207500: system.cpu: Running Insts:      3630000000
1820000207500: system.cpu: Running Insts:      3640000000
1825000207500: system.cpu: Running Insts:      3650000000
1830000207500: system.cpu: Running Insts:      3660000000
1835000207500: system.cpu: Running Insts:      3670000000
1840000207500: system.cpu: Running Insts:      3680000000
1845000207500: system.cpu: Running Insts:      3690000000
1850000207500: system.cpu: Running Insts:      3700000000
1855000207500: system.cpu: Running Insts:      3710000000
1860000207500: system.cpu: Running Insts:      3720000000
1865000207500: system.cpu: Running Insts:      3730000000
1870000207500: system.cpu: Running Insts:      3740000000
1875000207500: system.cpu: Running Insts:      3750000000
1880000207500: system.cpu: Running Insts:      3760000000
1885000207500: system.cpu: Running Insts:      3770000000
1890000207500: system.cpu: Running Insts:      3780000000
1895000207500: system.cpu: Running Insts:      3790000000
1900000207500: system.cpu: Running Insts:      3800000000
1905000207500: system.cpu: Running Insts:      3810000000
1910000207500: system.cpu: Running Insts:      3820000000
1915000207500: system.cpu: Running Insts:      3830000000
1920000207500: system.cpu: Running Insts:      3840000000
1925000207500: system.cpu: Running Insts:      3850000000
1930000207500: system.cpu: Running Insts:      3860000000
1935000207500: system.cpu: Running Insts:      3870000000
1940000207500: system.cpu: Running Insts:      3880000000
1945000207500: system.cpu: Running Insts:      3890000000
1950000207500: system.cpu: Running Insts:      3900000000
1955000207500: system.cpu: Running Insts:      3910000000
1960000207500: system.cpu: Running Insts:      3920000000
1965000207500: system.cpu: Running Insts:      3930000000
1970000207500: system.cpu: Running Insts:      3940000000
1975000207500: system.cpu: Running Insts:      3950000000
1980000207500: system.cpu: Running Insts:      3960000000
1985000207500: system.cpu: Running Insts:      3970000000
1990000207500: system.cpu: Running Insts:      3980000000
1995000207500: system.cpu: Running Insts:      3990000000
2000000207500: system.cpu: Running Insts:      4000000000
2005000207500: system.cpu: Running Insts:      4010000000
2010000207500: system.cpu: Running Insts:      4020000000
2015000207500: system.cpu: Running Insts:      4030000000
2020000207500: system.cpu: Running Insts:      4040000000
2025000207500: system.cpu: Running Insts:      4050000000
2030000207500: system.cpu: Running Insts:      4060000000
2035000207500: system.cpu: Running Insts:      4070000000
2040000207500: system.cpu: Running Insts:      4080000000
2045000207500: system.cpu: Running Insts:      4090000000
2050000207500: system.cpu: Running Insts:      4100000000
2055000207500: system.cpu: Running Insts:      4110000000
2060000207500: system.cpu: Running Insts:      4120000000
2065000207500: system.cpu: Running Insts:      4130000000
2070000207500: system.cpu: Running Insts:      4140000000
2075000207500: system.cpu: Running Insts:      4150000000
2080000207500: system.cpu: Running Insts:      4160000000
2085000207500: system.cpu: Running Insts:      4170000000
2090000207500: system.cpu: Running Insts:      4180000000
2095000207500: system.cpu: Running Insts:      4190000000
2100000207500: system.cpu: Running Insts:      4200000000
2105000207500: system.cpu: Running Insts:      4210000000
2110000207500: system.cpu: Running Insts:      4220000000
2115000207500: system.cpu: Running Insts:      4230000000
2120000207500: system.cpu: Running Insts:      4240000000
2125000207500: system.cpu: Running Insts:      4250000000
2130000207500: system.cpu: Running Insts:      4260000000
2135000207500: system.cpu: Running Insts:      4270000000
2140000207500: system.cpu: Running Insts:      4280000000
2145000207500: system.cpu: Running Insts:      4290000000
2150000207500: system.cpu: Running Insts:      4300000000
2155000207500: system.cpu: Running Insts:      4310000000
2160000207500: system.cpu: Running Insts:      4320000000
2165000207500: system.cpu: Running Insts:      4330000000
2170000207500: system.cpu: Running Insts:      4340000000
2175000207500: system.cpu: Running Insts:      4350000000
2180000207500: system.cpu: Running Insts:      4360000000
2185000207500: system.cpu: Running Insts:      4370000000
2190000207500: system.cpu: Running Insts:      4380000000
2195000207500: system.cpu: Running Insts:      4390000000
2200000207500: system.cpu: Running Insts:      4400000000
2205000207500: system.cpu: Running Insts:      4410000000
2210000207500: system.cpu: Running Insts:      4420000000
2215000207500: system.cpu: Running Insts:      4430000000
2220000207500: system.cpu: Running Insts:      4440000000
2225000207500: system.cpu: Running Insts:      4450000000
2230000207500: system.cpu: Running Insts:      4460000000
2235000207500: system.cpu: Running Insts:      4470000000
2240000207500: system.cpu: Running Insts:      4480000000
2245000207500: system.cpu: Running Insts:      4490000000
2250000207500: system.cpu: Running Insts:      4500000000
2255000207500: system.cpu: Running Insts:      4510000000
2260000207500: system.cpu: Running Insts:      4520000000
2265000207500: system.cpu: Running Insts:      4530000000
2270000207500: system.cpu: Running Insts:      4540000000
2275000207500: system.cpu: Running Insts:      4550000000
2280000207500: system.cpu: Running Insts:      4560000000
2285000207500: system.cpu: Running Insts:      4570000000
2290000207500: system.cpu: Running Insts:      4580000000
2295000207500: system.cpu: Running Insts:      4590000000
2300000207500: system.cpu: Running Insts:      4600000000
2305000207500: system.cpu: Running Insts:      4610000000
2310000207500: system.cpu: Running Insts:      4620000000
2315000207500: system.cpu: Running Insts:      4630000000
2320000207500: system.cpu: Running Insts:      4640000000
2325000207500: system.cpu: Running Insts:      4650000000
2330000207500: system.cpu: Running Insts:      4660000000
2335000207500: system.cpu: Running Insts:      4670000000
2340000207500: system.cpu: Running Insts:      4680000000
2345000207500: system.cpu: Running Insts:      4690000000
2350000207500: system.cpu: Running Insts:      4700000000
2355000207500: system.cpu: Running Insts:      4710000000
2360000207500: system.cpu: Running Insts:      4720000000
2365000207500: system.cpu: Running Insts:      4730000000
2370000207500: system.cpu: Running Insts:      4740000000
2375000207500: system.cpu: Running Insts:      4750000000
2380000207500: system.cpu: Running Insts:      4760000000
2385000207500: system.cpu: Running Insts:      4770000000
2390000207500: system.cpu: Running Insts:      4780000000
2395000207500: system.cpu: Running Insts:      4790000000
2400000207500: system.cpu: Running Insts:      4800000000
2405000207500: system.cpu: Running Insts:      4810000000
2410000207500: system.cpu: Running Insts:      4820000000
2415000207500: system.cpu: Running Insts:      4830000000
2420000207500: system.cpu: Running Insts:      4840000000
2425000207500: system.cpu: Running Insts:      4850000000
2430000207500: system.cpu: Running Insts:      4860000000
2435000207500: system.cpu: Running Insts:      4870000000
2440000207500: system.cpu: Running Insts:      4880000000
2445000207500: system.cpu: Running Insts:      4890000000
2450000207500: system.cpu: Running Insts:      4900000000
2455000207500: system.cpu: Running Insts:      4910000000
2460000207500: system.cpu: Running Insts:      4920000000
2465000207500: system.cpu: Running Insts:      4930000000
2470000207500: system.cpu: Running Insts:      4940000000
2475000207500: system.cpu: Running Insts:      4950000000
2480000207500: system.cpu: Running Insts:      4960000000
2485000207500: system.cpu: Running Insts:      4970000000
2490000207500: system.cpu: Running Insts:      4980000000
2495000207500: system.cpu: Running Insts:      4990000000
2500000207500: system.cpu: Running Insts:      5000000000
2505000207500: system.cpu: Running Insts:      5010000000
2510000207500: system.cpu: Running Insts:      5020000000
2515000207500: system.cpu: Running Insts:      5030000000
2520000207500: system.cpu: Running Insts:      5040000000
2525000207500: system.cpu: Running Insts:      5050000000
2530000207500: system.cpu: Running Insts:      5060000000
2535000207500: system.cpu: Running Insts:      5070000000
2540000207500: system.cpu: Running Insts:      5080000000
2545000207500: system.cpu: Running Insts:      5090000000
2550000207500: system.cpu: Running Insts:      5100000000
2555000207500: system.cpu: Running Insts:      5110000000
2560000207500: system.cpu: Running Insts:      5120000000
2565000207500: system.cpu: Running Insts:      5130000000
2570000207500: system.cpu: Running Insts:      5140000000
2575000207500: system.cpu: Running Insts:      5150000000
2580000207500: system.cpu: Running Insts:      5160000000
2585000207500: system.cpu: Running Insts:      5170000000
2590000207500: system.cpu: Running Insts:      5180000000
2595000207500: system.cpu: Running Insts:      5190000000
2600000207500: system.cpu: Running Insts:      5200000000
2605000207500: system.cpu: Running Insts:      5210000000
2610000207500: system.cpu: Running Insts:      5220000000
2615000207500: system.cpu: Running Insts:      5230000000
2620000207500: system.cpu: Running Insts:      5240000000
2625000207500: system.cpu: Running Insts:      5250000000
2630000207500: system.cpu: Running Insts:      5260000000
2635000207500: system.cpu: Running Insts:      5270000000
2640000207500: system.cpu: Running Insts:      5280000000
2645000207500: system.cpu: Running Insts:      5290000000
2650000207500: system.cpu: Running Insts:      5300000000
2655000207500: system.cpu: Running Insts:      5310000000
2660000207500: system.cpu: Running Insts:      5320000000
2665000207500: system.cpu: Running Insts:      5330000000
2670000207500: system.cpu: Running Insts:      5340000000
2675000207500: system.cpu: Running Insts:      5350000000
2680000207500: system.cpu: Running Insts:      5360000000
2685000207500: system.cpu: Running Insts:      5370000000
2690000207500: system.cpu: Running Insts:      5380000000
2695000207500: system.cpu: Running Insts:      5390000000
2700000207500: system.cpu: Running Insts:      5400000000
2705000207500: system.cpu: Running Insts:      5410000000
2710000207500: system.cpu: Running Insts:      5420000000
2715000207500: system.cpu: Running Insts:      5430000000
2720000207500: system.cpu: Running Insts:      5440000000
2725000207500: system.cpu: Running Insts:      5450000000
2730000207500: system.cpu: Running Insts:      5460000000
2735000207500: system.cpu: Running Insts:      5470000000
2740000207500: system.cpu: Running Insts:      5480000000
2745000207500: system.cpu: Running Insts:      5490000000
2750000207500: system.cpu: Running Insts:      5500000000
2755000207500: system.cpu: Running Insts:      5510000000
2760000207500: system.cpu: Running Insts:      5520000000
2765000207500: system.cpu: Running Insts:      5530000000
2770000207500: system.cpu: Running Insts:      5540000000
2775000207500: system.cpu: Running Insts:      5550000000
2780000207500: system.cpu: Running Insts:      5560000000
2785000207500: system.cpu: Running Insts:      5570000000
2790000207500: system.cpu: Running Insts:      5580000000
2795000207500: system.cpu: Running Insts:      5590000000
2800000207500: system.cpu: Running Insts:      5600000000
2805000207500: system.cpu: Running Insts:      5610000000
2810000207500: system.cpu: Running Insts:      5620000000
2815000207500: system.cpu: Running Insts:      5630000000
2820000207500: system.cpu: Running Insts:      5640000000
2825000207500: system.cpu: Running Insts:      5650000000
2830000207500: system.cpu: Running Insts:      5660000000
2835000207500: system.cpu: Running Insts:      5670000000
2840000207500: system.cpu: Running Insts:      5680000000
2845000207500: system.cpu: Running Insts:      5690000000
2850000207500: system.cpu: Running Insts:      5700000000
2855000207500: system.cpu: Running Insts:      5710000000
2860000207500: system.cpu: Running Insts:      5720000000
2865000207500: system.cpu: Running Insts:      5730000000
2870000207500: system.cpu: Running Insts:      5740000000
2875000207500: system.cpu: Running Insts:      5750000000
2880000207500: system.cpu: Running Insts:      5760000000
2885000207500: system.cpu: Running Insts:      5770000000
2890000207500: system.cpu: Running Insts:      5780000000
2895000207500: system.cpu: Running Insts:      5790000000
2900000207500: system.cpu: Running Insts:      5800000000
2905000207500: system.cpu: Running Insts:      5810000000
2910000207500: system.cpu: Running Insts:      5820000000
2915000207500: system.cpu: Running Insts:      5830000000
2920000207500: system.cpu: Running Insts:      5840000000
2925000207500: system.cpu: Running Insts:      5850000000
2930000207500: system.cpu: Running Insts:      5860000000
2935000207500: system.cpu: Running Insts:      5870000000
2940000207500: system.cpu: Running Insts:      5880000000
2945000207500: system.cpu: Running Insts:      5890000000
2950000207500: system.cpu: Running Insts:      5900000000
2955000207500: system.cpu: Running Insts:      5910000000
2960000207500: system.cpu: Running Insts:      5920000000
2965000207500: system.cpu: Running Insts:      5930000000
2970000207500: system.cpu: Running Insts:      5940000000
2975000207500: system.cpu: Running Insts:      5950000000
2980000207500: system.cpu: Running Insts:      5960000000
2985000207500: system.cpu: Running Insts:      5970000000
2990000207500: system.cpu: Running Insts:      5980000000
2995000207500: system.cpu: Running Insts:      5990000000
3000000207500: system.cpu: Running Insts:      6000000000
3005000207500: system.cpu: Running Insts:      6010000000
3010000207500: system.cpu: Running Insts:      6020000000
3015000207500: system.cpu: Running Insts:      6030000000
3020000207500: system.cpu: Running Insts:      6040000000
3025000207500: system.cpu: Running Insts:      6050000000
3030000207500: system.cpu: Running Insts:      6060000000
3035000207500: system.cpu: Running Insts:      6070000000
3040000207500: system.cpu: Running Insts:      6080000000
3045000207500: system.cpu: Running Insts:      6090000000
3050000207500: system.cpu: Running Insts:      6100000000
3055000207500: system.cpu: Running Insts:      6110000000
3060000207500: system.cpu: Running Insts:      6120000000
3065000207500: system.cpu: Running Insts:      6130000000
3070000207500: system.cpu: Running Insts:      6140000000
3075000207500: system.cpu: Running Insts:      6150000000
3080000207500: system.cpu: Running Insts:      6160000000
3085000207500: system.cpu: Running Insts:      6170000000
3090000207500: system.cpu: Running Insts:      6180000000
3095000207500: system.cpu: Running Insts:      6190000000
3100000207500: system.cpu: Running Insts:      6200000000
3105000207500: system.cpu: Running Insts:      6210000000
3110000207500: system.cpu: Running Insts:      6220000000
3115000207500: system.cpu: Running Insts:      6230000000
3120000207500: system.cpu: Running Insts:      6240000000
3125000207500: system.cpu: Running Insts:      6250000000
3130000207500: system.cpu: Running Insts:      6260000000
3135000207500: system.cpu: Running Insts:      6270000000
3140000207500: system.cpu: Running Insts:      6280000000
3145000207500: system.cpu: Running Insts:      6290000000
3150000207500: system.cpu: Running Insts:      6300000000
3155000207500: system.cpu: Running Insts:      6310000000
3160000207500: system.cpu: Running Insts:      6320000000
3165000207500: system.cpu: Running Insts:      6330000000
3170000207500: system.cpu: Running Insts:      6340000000
3175000207500: system.cpu: Running Insts:      6350000000
3180000207500: system.cpu: Running Insts:      6360000000
3185000207500: system.cpu: Running Insts:      6370000000
3190000207500: system.cpu: Running Insts:      6380000000
3195000207500: system.cpu: Running Insts:      6390000000
3200000207500: system.cpu: Running Insts:      6400000000
3205000207500: system.cpu: Running Insts:      6410000000
3210000207500: system.cpu: Running Insts:      6420000000
3215000207500: system.cpu: Running Insts:      6430000000
3220000207500: system.cpu: Running Insts:      6440000000
3225000207500: system.cpu: Running Insts:      6450000000
3230000207500: system.cpu: Running Insts:      6460000000
3235000207500: system.cpu: Running Insts:      6470000000
3240000207500: system.cpu: Running Insts:      6480000000
3245000207500: system.cpu: Running Insts:      6490000000
3250000207500: system.cpu: Running Insts:      6500000000
3255000207500: system.cpu: Running Insts:      6510000000
3260000207500: system.cpu: Running Insts:      6520000000
3265000207500: system.cpu: Running Insts:      6530000000
3270000207500: system.cpu: Running Insts:      6540000000
3275000207500: system.cpu: Running Insts:      6550000000
3280000207500: system.cpu: Running Insts:      6560000000
3285000207500: system.cpu: Running Insts:      6570000000
3290000207500: system.cpu: Running Insts:      6580000000
3295000207500: system.cpu: Running Insts:      6590000000
3300000207500: system.cpu: Running Insts:      6600000000
3305000207500: system.cpu: Running Insts:      6610000000
3310000207500: system.cpu: Running Insts:      6620000000
3315000207500: system.cpu: Running Insts:      6630000000
3320000207500: system.cpu: Running Insts:      6640000000
3325000207500: system.cpu: Running Insts:      6650000000
3330000207500: system.cpu: Running Insts:      6660000000
3335000207500: system.cpu: Running Insts:      6670000000
3340000207500: system.cpu: Running Insts:      6680000000
3345000207500: system.cpu: Running Insts:      6690000000
3350000207500: system.cpu: Running Insts:      6700000000
3355000207500: system.cpu: Running Insts:      6710000000
3360000207500: system.cpu: Running Insts:      6720000000
3365000207500: system.cpu: Running Insts:      6730000000
3370000207500: system.cpu: Running Insts:      6740000000
3375000207500: system.cpu: Running Insts:      6750000000
3380000207500: system.cpu: Running Insts:      6760000000
3385000207500: system.cpu: Running Insts:      6770000000
3390000207500: system.cpu: Running Insts:      6780000000
3395000207500: system.cpu: Running Insts:      6790000000
3400000207500: system.cpu: Running Insts:      6800000000
3405000207500: system.cpu: Running Insts:      6810000000
3410000207500: system.cpu: Running Insts:      6820000000
3415000207500: system.cpu: Running Insts:      6830000000
3420000207500: system.cpu: Running Insts:      6840000000
3425000207500: system.cpu: Running Insts:      6850000000
3430000207500: system.cpu: Running Insts:      6860000000
3435000207500: system.cpu: Running Insts:      6870000000
3440000207500: system.cpu: Running Insts:      6880000000
3445000207500: system.cpu: Running Insts:      6890000000
3450000207500: system.cpu: Running Insts:      6900000000
3455000207500: system.cpu: Running Insts:      6910000000
3460000207500: system.cpu: Running Insts:      6920000000
3465000207500: system.cpu: Running Insts:      6930000000
3470000207500: system.cpu: Running Insts:      6940000000
3475000207500: system.cpu: Running Insts:      6950000000
3480000207500: system.cpu: Running Insts:      6960000000
3485000207500: system.cpu: Running Insts:      6970000000
3490000207500: system.cpu: Running Insts:      6980000000
3495000207500: system.cpu: Running Insts:      6990000000
3500000207500: system.cpu: Running Insts:      7000000000
3505000207500: system.cpu: Running Insts:      7010000000
3510000207500: system.cpu: Running Insts:      7020000000
3515000207500: system.cpu: Running Insts:      7030000000
3520000207500: system.cpu: Running Insts:      7040000000
3525000207500: system.cpu: Running Insts:      7050000000
3530000207500: system.cpu: Running Insts:      7060000000
3535000207500: system.cpu: Running Insts:      7070000000
3540000207500: system.cpu: Running Insts:      7080000000
3545000207500: system.cpu: Running Insts:      7090000000
3550000207500: system.cpu: Running Insts:      7100000000
3555000207500: system.cpu: Running Insts:      7110000000
3560000207500: system.cpu: Running Insts:      7120000000
3565000207500: system.cpu: Running Insts:      7130000000
3570000207500: system.cpu: Running Insts:      7140000000
3575000207500: system.cpu: Running Insts:      7150000000
3580000207500: system.cpu: Running Insts:      7160000000
3585000207500: system.cpu: Running Insts:      7170000000
3590000207500: system.cpu: Running Insts:      7180000000
3595000207500: system.cpu: Running Insts:      7190000000
3600000207500: system.cpu: Running Insts:      7200000000
3605000207500: system.cpu: Running Insts:      7210000000
3610000207500: system.cpu: Running Insts:      7220000000
3615000207500: system.cpu: Running Insts:      7230000000
3620000207500: system.cpu: Running Insts:      7240000000
3625000207500: system.cpu: Running Insts:      7250000000
3630000207500: system.cpu: Running Insts:      7260000000
3635000207500: system.cpu: Running Insts:      7270000000
3640000207500: system.cpu: Running Insts:      7280000000
3645000207500: system.cpu: Running Insts:      7290000000
3650000207500: system.cpu: Running Insts:      7300000000
3655000207500: system.cpu: Running Insts:      7310000000
3660000207500: system.cpu: Running Insts:      7320000000
3665000207500: system.cpu: Running Insts:      7330000000
3670000207500: system.cpu: Running Insts:      7340000000
3675000207500: system.cpu: Running Insts:      7350000000
3680000207500: system.cpu: Running Insts:      7360000000
3685000207500: system.cpu: Running Insts:      7370000000
3690000207500: system.cpu: Running Insts:      7380000000
3695000207500: system.cpu: Running Insts:      7390000000
3700000207500: system.cpu: Running Insts:      7400000000
3705000207500: system.cpu: Running Insts:      7410000000
3710000207500: system.cpu: Running Insts:      7420000000
3715000207500: system.cpu: Running Insts:      7430000000
3720000207500: system.cpu: Running Insts:      7440000000
3725000207500: system.cpu: Running Insts:      7450000000
3730000207500: system.cpu: Running Insts:      7460000000
3735000207500: system.cpu: Running Insts:      7470000000
3740000207500: system.cpu: Running Insts:      7480000000
3745000207500: system.cpu: Running Insts:      7490000000
3750000207500: system.cpu: Running Insts:      7500000000
3755000207500: system.cpu: Running Insts:      7510000000
3760000207500: system.cpu: Running Insts:      7520000000
3765000207500: system.cpu: Running Insts:      7530000000
3770000207500: system.cpu: Running Insts:      7540000000
3775000207500: system.cpu: Running Insts:      7550000000
3780000207500: system.cpu: Running Insts:      7560000000
3785000207500: system.cpu: Running Insts:      7570000000
3790000207500: system.cpu: Running Insts:      7580000000
3795000207500: system.cpu: Running Insts:      7590000000
3800000207500: system.cpu: Running Insts:      7600000000
3805000207500: system.cpu: Running Insts:      7610000000
3810000207500: system.cpu: Running Insts:      7620000000
3815000207500: system.cpu: Running Insts:      7630000000
3820000207500: system.cpu: Running Insts:      7640000000
3825000207500: system.cpu: Running Insts:      7650000000
3830000207500: system.cpu: Running Insts:      7660000000
3835000207500: system.cpu: Running Insts:      7670000000
3840000207500: system.cpu: Running Insts:      7680000000
3845000207500: system.cpu: Running Insts:      7690000000
3850000207500: system.cpu: Running Insts:      7700000000
3855000207500: system.cpu: Running Insts:      7710000000
3860000207500: system.cpu: Running Insts:      7720000000
3865000207500: system.cpu: Running Insts:      7730000000
3870000207500: system.cpu: Running Insts:      7740000000
3875000207500: system.cpu: Running Insts:      7750000000
3880000207500: system.cpu: Running Insts:      7760000000
3885000207500: system.cpu: Running Insts:      7770000000
3890000207500: system.cpu: Running Insts:      7780000000
3895000207500: system.cpu: Running Insts:      7790000000
3900000207500: system.cpu: Running Insts:      7800000000
3905000207500: system.cpu: Running Insts:      7810000000
3910000207500: system.cpu: Running Insts:      7820000000
3915000207500: system.cpu: Running Insts:      7830000000
3920000207500: system.cpu: Running Insts:      7840000000
3925000207500: system.cpu: Running Insts:      7850000000
3930000207500: system.cpu: Running Insts:      7860000000
3935000207500: system.cpu: Running Insts:      7870000000
3940000207500: system.cpu: Running Insts:      7880000000
3945000207500: system.cpu: Running Insts:      7890000000
3950000207500: system.cpu: Running Insts:      7900000000
3955000207500: system.cpu: Running Insts:      7910000000
3960000207500: system.cpu: Running Insts:      7920000000
3965000207500: system.cpu: Running Insts:      7930000000
3970000207500: system.cpu: Running Insts:      7940000000
3975000207500: system.cpu: Running Insts:      7950000000
3980000207500: system.cpu: Running Insts:      7960000000
3985000207500: system.cpu: Running Insts:      7970000000
3990000207500: system.cpu: Running Insts:      7980000000
3995000207500: system.cpu: Running Insts:      7990000000
4000000207500: system.cpu: Running Insts:      8000000000
4005000207500: system.cpu: Running Insts:      8010000000
4010000207500: system.cpu: Running Insts:      8020000000
4015000207500: system.cpu: Running Insts:      8030000000
4020000207500: system.cpu: Running Insts:      8040000000
4025000207500: system.cpu: Running Insts:      8050000000
4030000207500: system.cpu: Running Insts:      8060000000
4035000207500: system.cpu: Running Insts:      8070000000
4040000207500: system.cpu: Running Insts:      8080000000
4045000207500: system.cpu: Running Insts:      8090000000
4050000207500: system.cpu: Running Insts:      8100000000
4055000207500: system.cpu: Running Insts:      8110000000
4060000207500: system.cpu: Running Insts:      8120000000
4065000207500: system.cpu: Running Insts:      8130000000
4070000207500: system.cpu: Running Insts:      8140000000
4075000207500: system.cpu: Running Insts:      8150000000
4080000207500: system.cpu: Running Insts:      8160000000
4085000207500: system.cpu: Running Insts:      8170000000
4090000207500: system.cpu: Running Insts:      8180000000
4095000207500: system.cpu: Running Insts:      8190000000
4100000207500: system.cpu: Running Insts:      8200000000
4105000207500: system.cpu: Running Insts:      8210000000
4110000207500: system.cpu: Running Insts:      8220000000
4115000207500: system.cpu: Running Insts:      8230000000
4120000207500: system.cpu: Running Insts:      8240000000
4125000207500: system.cpu: Running Insts:      8250000000
4130000207500: system.cpu: Running Insts:      8260000000
4135000207500: system.cpu: Running Insts:      8270000000
4140000207500: system.cpu: Running Insts:      8280000000
4145000207500: system.cpu: Running Insts:      8290000000
4150000207500: system.cpu: Running Insts:      8300000000
4155000207500: system.cpu: Running Insts:      8310000000
4160000207500: system.cpu: Running Insts:      8320000000
4165000207500: system.cpu: Running Insts:      8330000000
4170000207500: system.cpu: Running Insts:      8340000000
4175000207500: system.cpu: Running Insts:      8350000000
4180000207500: system.cpu: Running Insts:      8360000000
4185000207500: system.cpu: Running Insts:      8370000000
4190000207500: system.cpu: Running Insts:      8380000000
4195000207500: system.cpu: Running Insts:      8390000000
4200000207500: system.cpu: Running Insts:      8400000000
4205000207500: system.cpu: Running Insts:      8410000000
4210000207500: system.cpu: Running Insts:      8420000000
4215000207500: system.cpu: Running Insts:      8430000000
4220000207500: system.cpu: Running Insts:      8440000000
4225000207500: system.cpu: Running Insts:      8450000000
4230000207500: system.cpu: Running Insts:      8460000000
4235000207500: system.cpu: Running Insts:      8470000000
4240000207500: system.cpu: Running Insts:      8480000000
4245000207500: system.cpu: Running Insts:      8490000000
4250000207500: system.cpu: Running Insts:      8500000000
4255000207500: system.cpu: Running Insts:      8510000000
4260000207500: system.cpu: Running Insts:      8520000000
4265000207500: system.cpu: Running Insts:      8530000000
4270000207500: system.cpu: Running Insts:      8540000000
4275000207500: system.cpu: Running Insts:      8550000000
4280000207500: system.cpu: Running Insts:      8560000000
4285000207500: system.cpu: Running Insts:      8570000000
4290000207500: system.cpu: Running Insts:      8580000000
4295000207500: system.cpu: Running Insts:      8590000000
4300000207500: system.cpu: Running Insts:      8600000000
4305000207500: system.cpu: Running Insts:      8610000000
4310000207500: system.cpu: Running Insts:      8620000000
4315000207500: system.cpu: Running Insts:      8630000000
4320000207500: system.cpu: Running Insts:      8640000000
4325000207500: system.cpu: Running Insts:      8650000000
4330000207500: system.cpu: Running Insts:      8660000000
4335000207500: system.cpu: Running Insts:      8670000000
4340000207500: system.cpu: Running Insts:      8680000000
4345000207500: system.cpu: Running Insts:      8690000000
4350000207500: system.cpu: Running Insts:      8700000000
4355000207500: system.cpu: Running Insts:      8710000000
4360000207500: system.cpu: Running Insts:      8720000000
4365000207500: system.cpu: Running Insts:      8730000000
4370000207500: system.cpu: Running Insts:      8740000000
4375000207500: system.cpu: Running Insts:      8750000000
4380000207500: system.cpu: Running Insts:      8760000000
4385000207500: system.cpu: Running Insts:      8770000000
4390000207500: system.cpu: Running Insts:      8780000000
4395000207500: system.cpu: Running Insts:      8790000000
4400000207500: system.cpu: Running Insts:      8800000000
4405000207500: system.cpu: Running Insts:      8810000000
4410000207500: system.cpu: Running Insts:      8820000000
4415000207500: system.cpu: Running Insts:      8830000000
4420000207500: system.cpu: Running Insts:      8840000000
4425000207500: system.cpu: Running Insts:      8850000000
4430000207500: system.cpu: Running Insts:      8860000000
4435000207500: system.cpu: Running Insts:      8870000000
4440000207500: system.cpu: Running Insts:      8880000000
4445000207500: system.cpu: Running Insts:      8890000000
4450000207500: system.cpu: Running Insts:      8900000000
4455000207500: system.cpu: Running Insts:      8910000000
4460000207500: system.cpu: Running Insts:      8920000000
4465000207500: system.cpu: Running Insts:      8930000000
4470000207500: system.cpu: Running Insts:      8940000000
4475000207500: system.cpu: Running Insts:      8950000000
4480000207500: system.cpu: Running Insts:      8960000000
4485000207500: system.cpu: Running Insts:      8970000000
4490000207500: system.cpu: Running Insts:      8980000000
4495000207500: system.cpu: Running Insts:      8990000000
4500000207500: system.cpu: Running Insts:      9000000000
4505000207500: system.cpu: Running Insts:      9010000000
4510000207500: system.cpu: Running Insts:      9020000000
4515000207500: system.cpu: Running Insts:      9030000000
4520000207500: system.cpu: Running Insts:      9040000000
4525000207500: system.cpu: Running Insts:      9050000000
4530000207500: system.cpu: Running Insts:      9060000000
4535000207500: system.cpu: Running Insts:      9070000000
4540000207500: system.cpu: Running Insts:      9080000000
4545000207500: system.cpu: Running Insts:      9090000000
4550000207500: system.cpu: Running Insts:      9100000000
4555000207500: system.cpu: Running Insts:      9110000000
4560000207500: system.cpu: Running Insts:      9120000000
4565000207500: system.cpu: Running Insts:      9130000000
4570000207500: system.cpu: Running Insts:      9140000000
4575000207500: system.cpu: Running Insts:      9150000000
4580000207500: system.cpu: Running Insts:      9160000000
4585000207500: system.cpu: Running Insts:      9170000000
4590000207500: system.cpu: Running Insts:      9180000000
4595000207500: system.cpu: Running Insts:      9190000000
4600000207500: system.cpu: Running Insts:      9200000000
4605000207500: system.cpu: Running Insts:      9210000000
4610000207500: system.cpu: Running Insts:      9220000000
4615000207500: system.cpu: Running Insts:      9230000000
4620000207500: system.cpu: Running Insts:      9240000000
4625000207500: system.cpu: Running Insts:      9250000000
4630000207500: system.cpu: Running Insts:      9260000000
4635000207500: system.cpu: Running Insts:      9270000000
4640000207500: system.cpu: Running Insts:      9280000000
4645000207500: system.cpu: Running Insts:      9290000000
4650000207500: system.cpu: Running Insts:      9300000000
4655000207500: system.cpu: Running Insts:      9310000000
4660000207500: system.cpu: Running Insts:      9320000000
4665000207500: system.cpu: Running Insts:      9330000000
4670000207500: system.cpu: Running Insts:      9340000000
4675000207500: system.cpu: Running Insts:      9350000000
4680000207500: system.cpu: Running Insts:      9360000000
4685000207500: system.cpu: Running Insts:      9370000000
4690000207500: system.cpu: Running Insts:      9380000000
4695000207500: system.cpu: Running Insts:      9390000000
4700000207500: system.cpu: Running Insts:      9400000000
4705000207500: system.cpu: Running Insts:      9410000000
4710000207500: system.cpu: Running Insts:      9420000000
4715000207500: system.cpu: Running Insts:      9430000000
4720000207500: system.cpu: Running Insts:      9440000000
4725000207500: system.cpu: Running Insts:      9450000000
4730000207500: system.cpu: Running Insts:      9460000000
4735000207500: system.cpu: Running Insts:      9470000000
4740000207500: system.cpu: Running Insts:      9480000000
4745000207500: system.cpu: Running Insts:      9490000000
4750000207500: system.cpu: Running Insts:      9500000000
4755000207500: system.cpu: Running Insts:      9510000000
4760000207500: system.cpu: Running Insts:      9520000000
4765000207500: system.cpu: Running Insts:      9530000000
4770000207500: system.cpu: Running Insts:      9540000000
4775000207500: system.cpu: Running Insts:      9550000000
4780000207500: system.cpu: Running Insts:      9560000000
4785000207500: system.cpu: Running Insts:      9570000000
4790000207500: system.cpu: Running Insts:      9580000000
4795000207500: system.cpu: Running Insts:      9590000000
4800000207500: system.cpu: Running Insts:      9600000000
4805000207500: system.cpu: Running Insts:      9610000000
4810000207500: system.cpu: Running Insts:      9620000000
4815000207500: system.cpu: Running Insts:      9630000000
4820000207500: system.cpu: Running Insts:      9640000000
4825000207500: system.cpu: Running Insts:      9650000000
4830000207500: system.cpu: Running Insts:      9660000000
4835000207500: system.cpu: Running Insts:      9670000000
4840000207500: system.cpu: Running Insts:      9680000000
4845000207500: system.cpu: Running Insts:      9690000000
4850000207500: system.cpu: Running Insts:      9700000000
4855000207500: system.cpu: Running Insts:      9710000000
4860000207500: system.cpu: Running Insts:      9720000000
4865000207500: system.cpu: Running Insts:      9730000000
4870000207500: system.cpu: Running Insts:      9740000000
4875000207500: system.cpu: Running Insts:      9750000000
4880000207500: system.cpu: Running Insts:      9760000000
4885000207500: system.cpu: Running Insts:      9770000000
4890000207500: system.cpu: Running Insts:      9780000000
4895000207500: system.cpu: Running Insts:      9790000000
4900000207500: system.cpu: Running Insts:      9800000000
4905000207500: system.cpu: Running Insts:      9810000000
4910000207500: system.cpu: Running Insts:      9820000000
4915000207500: system.cpu: Running Insts:      9830000000
4920000207500: system.cpu: Running Insts:      9840000000
4925000207500: system.cpu: Running Insts:      9850000000
4930000207500: system.cpu: Running Insts:      9860000000
4935000207500: system.cpu: Running Insts:      9870000000
4940000207500: system.cpu: Running Insts:      9880000000
4945000207500: system.cpu: Running Insts:      9890000000
4950000207500: system.cpu: Running Insts:      9900000000
4955000207500: system.cpu: Running Insts:      9910000000
4960000207500: system.cpu: Running Insts:      9920000000
4965000207500: system.cpu: Running Insts:      9930000000
4970000207500: system.cpu: Running Insts:      9940000000
4975000207500: system.cpu: Running Insts:      9950000000
4980000207500: system.cpu: Running Insts:      9960000000
4985000207500: system.cpu: Running Insts:      9970000000
4990000207500: system.cpu: Running Insts:      9980000000
4995000207500: system.cpu: Running Insts:      9990000000
5000000207500: system.cpu: Running Insts:     10000000000
5005000207500: system.cpu: Running Insts:     10010000000
5010000207500: system.cpu: Running Insts:     10020000000
5015000207500: system.cpu: Running Insts:     10030000000
5020000207500: system.cpu: Running Insts:     10040000000
5025000207500: system.cpu: Running Insts:     10050000000
5030000207500: system.cpu: Running Insts:     10060000000
5035000207500: system.cpu: Running Insts:     10070000000
5040000207500: system.cpu: Running Insts:     10080000000
5045000207500: system.cpu: Running Insts:     10090000000
5050000207500: system.cpu: Running Insts:     10100000000
5055000207500: system.cpu: Running Insts:     10110000000
5060000207500: system.cpu: Running Insts:     10120000000
5065000207500: system.cpu: Running Insts:     10130000000
5070000207500: system.cpu: Running Insts:     10140000000
5075000207500: system.cpu: Running Insts:     10150000000
5080000207500: system.cpu: Running Insts:     10160000000
5085000207500: system.cpu: Running Insts:     10170000000
5090000207500: system.cpu: Running Insts:     10180000000
5095000207500: system.cpu: Running Insts:     10190000000
5100000207500: system.cpu: Running Insts:     10200000000
5105000207500: system.cpu: Running Insts:     10210000000
5110000207500: system.cpu: Running Insts:     10220000000
5115000207500: system.cpu: Running Insts:     10230000000
5120000207500: system.cpu: Running Insts:     10240000000
5125000207500: system.cpu: Running Insts:     10250000000
5130000207500: system.cpu: Running Insts:     10260000000
5135000207500: system.cpu: Running Insts:     10270000000
5140000207500: system.cpu: Running Insts:     10280000000
5145000207500: system.cpu: Running Insts:     10290000000
5150000207500: system.cpu: Running Insts:     10300000000
5155000207500: system.cpu: Running Insts:     10310000000
5160000207500: system.cpu: Running Insts:     10320000000
5165000207500: system.cpu: Running Insts:     10330000000
5170000207500: system.cpu: Running Insts:     10340000000
5175000207500: system.cpu: Running Insts:     10350000000
5180000207500: system.cpu: Running Insts:     10360000000
5185000207500: system.cpu: Running Insts:     10370000000
5190000207500: system.cpu: Running Insts:     10380000000
5195000207500: system.cpu: Running Insts:     10390000000
5200000207500: system.cpu: Running Insts:     10400000000
5205000207500: system.cpu: Running Insts:     10410000000
5210000207500: system.cpu: Running Insts:     10420000000
5215000207500: system.cpu: Running Insts:     10430000000
5220000207500: system.cpu: Running Insts:     10440000000
5225000207500: system.cpu: Running Insts:     10450000000
5230000207500: system.cpu: Running Insts:     10460000000
5235000207500: system.cpu: Running Insts:     10470000000
5240000207500: system.cpu: Running Insts:     10480000000
5245000207500: system.cpu: Running Insts:     10490000000
5250000207500: system.cpu: Running Insts:     10500000000
5255000207500: system.cpu: Running Insts:     10510000000
5260000207500: system.cpu: Running Insts:     10520000000
5265000207500: system.cpu: Running Insts:     10530000000
5270000207500: system.cpu: Running Insts:     10540000000
5275000207500: system.cpu: Running Insts:     10550000000
5280000207500: system.cpu: Running Insts:     10560000000
5285000207500: system.cpu: Running Insts:     10570000000
5290000207500: system.cpu: Running Insts:     10580000000
5295000207500: system.cpu: Running Insts:     10590000000
5300000207500: system.cpu: Running Insts:     10600000000
5305000207500: system.cpu: Running Insts:     10610000000
5310000207500: system.cpu: Running Insts:     10620000000
5315000207500: system.cpu: Running Insts:     10630000000
5320000207500: system.cpu: Running Insts:     10640000000
5325000207500: system.cpu: Running Insts:     10650000000
5330000207500: system.cpu: Running Insts:     10660000000
5335000207500: system.cpu: Running Insts:     10670000000
5340000207500: system.cpu: Running Insts:     10680000000
5345000207500: system.cpu: Running Insts:     10690000000
5350000207500: system.cpu: Running Insts:     10700000000
5355000207500: system.cpu: Running Insts:     10710000000
5360000207500: system.cpu: Running Insts:     10720000000
5365000207500: system.cpu: Running Insts:     10730000000
5370000207500: system.cpu: Running Insts:     10740000000
5375000207500: system.cpu: Running Insts:     10750000000
5380000207500: system.cpu: Running Insts:     10760000000
5385000207500: system.cpu: Running Insts:     10770000000
5390000207500: system.cpu: Running Insts:     10780000000
5395000207500: system.cpu: Running Insts:     10790000000
5400000207500: system.cpu: Running Insts:     10800000000
5405000207500: system.cpu: Running Insts:     10810000000
5410000207500: system.cpu: Running Insts:     10820000000
5415000207500: system.cpu: Running Insts:     10830000000
5420000207500: system.cpu: Running Insts:     10840000000
5425000207500: system.cpu: Running Insts:     10850000000
5430000207500: system.cpu: Running Insts:     10860000000
5435000207500: system.cpu: Running Insts:     10870000000
5440000207500: system.cpu: Running Insts:     10880000000
5445000207500: system.cpu: Running Insts:     10890000000
5450000207500: system.cpu: Running Insts:     10900000000
5455000207500: system.cpu: Running Insts:     10910000000
5460000207500: system.cpu: Running Insts:     10920000000
5465000207500: system.cpu: Running Insts:     10930000000
5470000207500: system.cpu: Running Insts:     10940000000
5475000207500: system.cpu: Running Insts:     10950000000
5480000207500: system.cpu: Running Insts:     10960000000
5485000207500: system.cpu: Running Insts:     10970000000
5490000207500: system.cpu: Running Insts:     10980000000
5495000207500: system.cpu: Running Insts:     10990000000
5500000207500: system.cpu: Running Insts:     11000000000
5505000207500: system.cpu: Running Insts:     11010000000
5510000207500: system.cpu: Running Insts:     11020000000
5515000207500: system.cpu: Running Insts:     11030000000
5520000207500: system.cpu: Running Insts:     11040000000
5525000207500: system.cpu: Running Insts:     11050000000
5530000207500: system.cpu: Running Insts:     11060000000
5535000207500: system.cpu: Running Insts:     11070000000
5540000207500: system.cpu: Running Insts:     11080000000
5545000207500: system.cpu: Running Insts:     11090000000
5550000207500: system.cpu: Running Insts:     11100000000
5555000207500: system.cpu: Running Insts:     11110000000
5560000207500: system.cpu: Running Insts:     11120000000
5565000207500: system.cpu: Running Insts:     11130000000
5570000207500: system.cpu: Running Insts:     11140000000
5575000207500: system.cpu: Running Insts:     11150000000
5580000207500: system.cpu: Running Insts:     11160000000
5585000207500: system.cpu: Running Insts:     11170000000
5590000207500: system.cpu: Running Insts:     11180000000
5595000207500: system.cpu: Running Insts:     11190000000
5600000207500: system.cpu: Running Insts:     11200000000
5605000207500: system.cpu: Running Insts:     11210000000
5610000207500: system.cpu: Running Insts:     11220000000
5615000207500: system.cpu: Running Insts:     11230000000
5620000207500: system.cpu: Running Insts:     11240000000
5625000207500: system.cpu: Running Insts:     11250000000
5630000207500: system.cpu: Running Insts:     11260000000
5635000207500: system.cpu: Running Insts:     11270000000
5640000207500: system.cpu: Running Insts:     11280000000
5645000207500: system.cpu: Running Insts:     11290000000
5650000207500: system.cpu: Running Insts:     11300000000
5655000207500: system.cpu: Running Insts:     11310000000
5660000207500: system.cpu: Running Insts:     11320000000
5665000207500: system.cpu: Running Insts:     11330000000
5670000207500: system.cpu: Running Insts:     11340000000
5675000207500: system.cpu: Running Insts:     11350000000
5680000207500: system.cpu: Running Insts:     11360000000
5685000207500: system.cpu: Running Insts:     11370000000
5690000207500: system.cpu: Running Insts:     11380000000
5695000207500: system.cpu: Running Insts:     11390000000
5700000207500: system.cpu: Running Insts:     11400000000
5705000207500: system.cpu: Running Insts:     11410000000
5710000207500: system.cpu: Running Insts:     11420000000
5715000207500: system.cpu: Running Insts:     11430000000
5720000207500: system.cpu: Running Insts:     11440000000
5725000207500: system.cpu: Running Insts:     11450000000
5730000207500: system.cpu: Running Insts:     11460000000
5735000207500: system.cpu: Running Insts:     11470000000
5740000207500: system.cpu: Running Insts:     11480000000
5745000207500: system.cpu: Running Insts:     11490000000
5750000207500: system.cpu: Running Insts:     11500000000
5755000207500: system.cpu: Running Insts:     11510000000
5760000207500: system.cpu: Running Insts:     11520000000
5765000207500: system.cpu: Running Insts:     11530000000
5770000207500: system.cpu: Running Insts:     11540000000
5775000207500: system.cpu: Running Insts:     11550000000
5780000207500: system.cpu: Running Insts:     11560000000
5785000207500: system.cpu: Running Insts:     11570000000
5790000207500: system.cpu: Running Insts:     11580000000
5795000207500: system.cpu: Running Insts:     11590000000
5800000207500: system.cpu: Running Insts:     11600000000
5805000207500: system.cpu: Running Insts:     11610000000
5810000207500: system.cpu: Running Insts:     11620000000
5815000207500: system.cpu: Running Insts:     11630000000
5820000207500: system.cpu: Running Insts:     11640000000
5825000207500: system.cpu: Running Insts:     11650000000
5830000207500: system.cpu: Running Insts:     11660000000
5835000207500: system.cpu: Running Insts:     11670000000
5840000207500: system.cpu: Running Insts:     11680000000
5845000207500: system.cpu: Running Insts:     11690000000
5850000207500: system.cpu: Running Insts:     11700000000
5855000207500: system.cpu: Running Insts:     11710000000
5860000207500: system.cpu: Running Insts:     11720000000
5865000207500: system.cpu: Running Insts:     11730000000
5870000207500: system.cpu: Running Insts:     11740000000
5875000207500: system.cpu: Running Insts:     11750000000
5880000207500: system.cpu: Running Insts:     11760000000
5885000207500: system.cpu: Running Insts:     11770000000
5890000207500: system.cpu: Running Insts:     11780000000
5895000207500: system.cpu: Running Insts:     11790000000
5900000207500: system.cpu: Running Insts:     11800000000
5905000207500: system.cpu: Running Insts:     11810000000
5910000207500: system.cpu: Running Insts:     11820000000
5915000207500: system.cpu: Running Insts:     11830000000
5920000207500: system.cpu: Running Insts:     11840000000
5925000207500: system.cpu: Running Insts:     11850000000
5930000207500: system.cpu: Running Insts:     11860000000
5935000207500: system.cpu: Running Insts:     11870000000
5940000207500: system.cpu: Running Insts:     11880000000
5945000207500: system.cpu: Running Insts:     11890000000
5950000207500: system.cpu: Running Insts:     11900000000
5955000207500: system.cpu: Running Insts:     11910000000
5960000207500: system.cpu: Running Insts:     11920000000
5965000207500: system.cpu: Running Insts:     11930000000
5970000207500: system.cpu: Running Insts:     11940000000
5975000207500: system.cpu: Running Insts:     11950000000
5980000207500: system.cpu: Running Insts:     11960000000
5985000207500: system.cpu: Running Insts:     11970000000
5990000207500: system.cpu: Running Insts:     11980000000
5995000207500: system.cpu: Running Insts:     11990000000
6000000207500: system.cpu: Running Insts:     12000000000
6005000207500: system.cpu: Running Insts:     12010000000
6010000207500: system.cpu: Running Insts:     12020000000
6015000207500: system.cpu: Running Insts:     12030000000
6020000207500: system.cpu: Running Insts:     12040000000
6025000207500: system.cpu: Running Insts:     12050000000
6030000207500: system.cpu: Running Insts:     12060000000
6035000207500: system.cpu: Running Insts:     12070000000
6040000207500: system.cpu: Running Insts:     12080000000
6045000207500: system.cpu: Running Insts:     12090000000
6050000207500: system.cpu: Running Insts:     12100000000
6055000207500: system.cpu: Running Insts:     12110000000
6060000207500: system.cpu: Running Insts:     12120000000
6065000207500: system.cpu: Running Insts:     12130000000
6070000207500: system.cpu: Running Insts:     12140000000
6075000207500: system.cpu: Running Insts:     12150000000
6080000207500: system.cpu: Running Insts:     12160000000
6085000207500: system.cpu: Running Insts:     12170000000
6090000207500: system.cpu: Running Insts:     12180000000
6095000207500: system.cpu: Running Insts:     12190000000
6100000207500: system.cpu: Running Insts:     12200000000
6105000207500: system.cpu: Running Insts:     12210000000
6110000207500: system.cpu: Running Insts:     12220000000
6115000207500: system.cpu: Running Insts:     12230000000
6120000207500: system.cpu: Running Insts:     12240000000
6125000207500: system.cpu: Running Insts:     12250000000
6130000207500: system.cpu: Running Insts:     12260000000
6135000207500: system.cpu: Running Insts:     12270000000
6140000207500: system.cpu: Running Insts:     12280000000
6145000207500: system.cpu: Running Insts:     12290000000
6150000207500: system.cpu: Running Insts:     12300000000
6155000207500: system.cpu: Running Insts:     12310000000
6160000207500: system.cpu: Running Insts:     12320000000
6165000207500: system.cpu: Running Insts:     12330000000
6170000207500: system.cpu: Running Insts:     12340000000
6175000207500: system.cpu: Running Insts:     12350000000
6180000207500: system.cpu: Running Insts:     12360000000
6185000207500: system.cpu: Running Insts:     12370000000
6190000207500: system.cpu: Running Insts:     12380000000
6195000207500: system.cpu: Running Insts:     12390000000
6200000207500: system.cpu: Running Insts:     12400000000
6205000207500: system.cpu: Running Insts:     12410000000
6210000207500: system.cpu: Running Insts:     12420000000
6215000207500: system.cpu: Running Insts:     12430000000
6220000207500: system.cpu: Running Insts:     12440000000
6225000207500: system.cpu: Running Insts:     12450000000
6230000207500: system.cpu: Running Insts:     12460000000
6235000207500: system.cpu: Running Insts:     12470000000
6240000207500: system.cpu: Running Insts:     12480000000
6245000207500: system.cpu: Running Insts:     12490000000
6250000207500: system.cpu: Running Insts:     12500000000
6255000207500: system.cpu: Running Insts:     12510000000
6260000207500: system.cpu: Running Insts:     12520000000
6265000207500: system.cpu: Running Insts:     12530000000
6270000207500: system.cpu: Running Insts:     12540000000
6275000207500: system.cpu: Running Insts:     12550000000
6280000207500: system.cpu: Running Insts:     12560000000
6285000207500: system.cpu: Running Insts:     12570000000
6290000207500: system.cpu: Running Insts:     12580000000
6295000207500: system.cpu: Running Insts:     12590000000
6300000207500: system.cpu: Running Insts:     12600000000
6305000207500: system.cpu: Running Insts:     12610000000
6310000207500: system.cpu: Running Insts:     12620000000
6315000207500: system.cpu: Running Insts:     12630000000
6320000207500: system.cpu: Running Insts:     12640000000
6325000207500: system.cpu: Running Insts:     12650000000
6330000207500: system.cpu: Running Insts:     12660000000
6335000207500: system.cpu: Running Insts:     12670000000
6340000207500: system.cpu: Running Insts:     12680000000
6345000207500: system.cpu: Running Insts:     12690000000
6350000207500: system.cpu: Running Insts:     12700000000
6355000207500: system.cpu: Running Insts:     12710000000
6360000207500: system.cpu: Running Insts:     12720000000
6365000207500: system.cpu: Running Insts:     12730000000
6370000207500: system.cpu: Running Insts:     12740000000
6375000207500: system.cpu: Running Insts:     12750000000
6380000207500: system.cpu: Running Insts:     12760000000
6385000207500: system.cpu: Running Insts:     12770000000
6390000207500: system.cpu: Running Insts:     12780000000
6395000207500: system.cpu: Running Insts:     12790000000
6400000207500: system.cpu: Running Insts:     12800000000
6405000207500: system.cpu: Running Insts:     12810000000
6410000207500: system.cpu: Running Insts:     12820000000
6415000207500: system.cpu: Running Insts:     12830000000
6420000207500: system.cpu: Running Insts:     12840000000
6425000207500: system.cpu: Running Insts:     12850000000
6430000207500: system.cpu: Running Insts:     12860000000
6435000207500: system.cpu: Running Insts:     12870000000
6440000207500: system.cpu: Running Insts:     12880000000
6445000207500: system.cpu: Running Insts:     12890000000
6450000207500: system.cpu: Running Insts:     12900000000
6455000207500: system.cpu: Running Insts:     12910000000
6460000207500: system.cpu: Running Insts:     12920000000
6465000207500: system.cpu: Running Insts:     12930000000
6470000207500: system.cpu: Running Insts:     12940000000
6475000207500: system.cpu: Running Insts:     12950000000
6480000207500: system.cpu: Running Insts:     12960000000
6485000207500: system.cpu: Running Insts:     12970000000
6490000207500: system.cpu: Running Insts:     12980000000
6495000207500: system.cpu: Running Insts:     12990000000
6500000207500: system.cpu: Running Insts:     13000000000
6505000207500: system.cpu: Running Insts:     13010000000
6510000207500: system.cpu: Running Insts:     13020000000
6515000207500: system.cpu: Running Insts:     13030000000
6520000207500: system.cpu: Running Insts:     13040000000
6525000207500: system.cpu: Running Insts:     13050000000
6530000207500: system.cpu: Running Insts:     13060000000
6535000207500: system.cpu: Running Insts:     13070000000
6540000207500: system.cpu: Running Insts:     13080000000
6545000207500: system.cpu: Running Insts:     13090000000
6550000207500: system.cpu: Running Insts:     13100000000
6555000207500: system.cpu: Running Insts:     13110000000
6560000207500: system.cpu: Running Insts:     13120000000
6565000207500: system.cpu: Running Insts:     13130000000
6570000207500: system.cpu: Running Insts:     13140000000
6575000207500: system.cpu: Running Insts:     13150000000
6580000207500: system.cpu: Running Insts:     13160000000
6585000207500: system.cpu: Running Insts:     13170000000
6590000207500: system.cpu: Running Insts:     13180000000
6595000207500: system.cpu: Running Insts:     13190000000
6600000207500: system.cpu: Running Insts:     13200000000
6605000207500: system.cpu: Running Insts:     13210000000
6610000207500: system.cpu: Running Insts:     13220000000
6615000207500: system.cpu: Running Insts:     13230000000
6620000207500: system.cpu: Running Insts:     13240000000
6625000207500: system.cpu: Running Insts:     13250000000
6630000207500: system.cpu: Running Insts:     13260000000
6635000207500: system.cpu: Running Insts:     13270000000
6640000207500: system.cpu: Running Insts:     13280000000
6645000207500: system.cpu: Running Insts:     13290000000
6650000207500: system.cpu: Running Insts:     13300000000
6655000207500: system.cpu: Running Insts:     13310000000
6660000207500: system.cpu: Running Insts:     13320000000
6665000207500: system.cpu: Running Insts:     13330000000
6670000207500: system.cpu: Running Insts:     13340000000
6675000207500: system.cpu: Running Insts:     13350000000
6680000207500: system.cpu: Running Insts:     13360000000
6685000207500: system.cpu: Running Insts:     13370000000
6690000207500: system.cpu: Running Insts:     13380000000
6695000207500: system.cpu: Running Insts:     13390000000
6700000207500: system.cpu: Running Insts:     13400000000
[...]
  --------------------------------------------------------------
  Initialization seed trial #2 of 5; initialization seed = 493575237
  --------------------------------------------------------------
  Initialized k-means centers using random sampling: 15 centers
  Number of k-means iterations performed: 44
  BIC score: 110581
  Distortion: 63.0779
  Distortions/cluster: 0.889219 1.12058 0.754471 3.06041 2.60079 5.50042 4.97854 5.75755 0.912105 5.46695 7.587 6.16646 5.29251 7.43167 5.55925 
  Variance: 0.0156949
  Variances/cluster: 0.00747242 0.00444676 0.00542785 0.145734 0.0268123 0.0213195 0.0242856 0.0202731 0.0040538 0.0169255 0.0230608 0.0181901 0.00915659 0.0232968 0.0104694 
  --------------------------------------------------------------
  Initialization seed trial #3 of 5; initialization seed = 493575238
  --------------------------------------------------------------
  Initialized k-means centers using random sampling: 15 centers
  Number of k-means iterations performed: 36
  BIC score: 104963
  Distortion: 75.8114
  Distortions/cluster: 4.75156 7.34283 9.4981 3.94039 2.35678 1.11834 0.990434 12.1395 18.004 1.4575 9.49966 0.940566 1.05876 0.987703 1.72532 
  Variance: 0.0188632
  Variances/cluster: 0.0151807 0.0265084 0.0251273 0.00907924 0.00499317 0.00561978 0.00692611 0.0246236 0.0849244 0.00439006 0.0259553 0.00777327 0.0162886 0.00753972 0.020787 
  --------------------------------------------------------------
  Initialization seed trial #4 of 5; initialization seed = 493575239
  --------------------------------------------------------------
  Initialized k-means centers using random sampling: 15 centers
  Number of k-means iterations performed: 35
  BIC score: 106628
  Distortion: 71.4145
  Distortions/cluster: 17.2135 7.63187 0.907412 0.908638 5.75515 7.54497 4.3885 2.6839 1.21768 1.90213 5.50042 1.22796 1.77084 8.15204 4.60949 
  Variance: 0.0177692
  Variances/cluster: 0.0856392 0.0232679 0.0153799 0.00400281 0.0179849 0.0264736 0.0140657 0.00591167 0.00822757 0.00960672 0.0213195 0.0159475 0.00569403 0.0238364 0.00923745 
  --------------------------------------------------------------
  Initialization seed trial #5 of 5; initialization seed = 493575240
  --------------------------------------------------------------
  Initialized k-means centers using random sampling: 15 centers
  Number of k-means iterations performed: 29
  BIC score: 111925
  Distortion: 60.9935
  Distortions/cluster: 2.75667 3.47613 2.72605 5.3574 2.91995 3.558 4.28881 4.40452 2.51787 1.63989 10.1639 5.36426 1.52818 6.65679 3.63509 
  Variance: 0.0151763
  Variances/cluster: 0.00546959 0.151136 0.0121158 0.0180993 0.0135812 0.0238792 0.0202302 0.0163737 0.0108063 0.0192928 0.0111446 0.0177625 0.0137674 0.0225654 0.0193356 
  The best initialization seed trial was #1

--------------------------------------------------------------
Run number 4 of at most 7, k = 22
--------------------------------------------------------------
  --------------------------------------------------------------
  Initialization seed trial #1 of 5; initialization seed = 493575241
  --------------------------------------------------------------
  Initialized k-means centers using random sampling: 22 centers
  Number of k-means iterations performed: 20
  BIC score: 116055
  Distortion: 49.1457
  Distortions/cluster: 3.49335 1.26705 2.01797 1.67933 5.33139 0.79924 2.7248 0.716435 1.08932 5.73041 1.32027 3.30148 0.401115 2.25714 0.940566 1.25597 0.733841 4.28173 2.33325 2.19145 2.21915 3.06041 
  Variance: 0.0122497
  Variances/cluster: 0.023289 0.0162442 0.0109672 0.00552411 0.0223071 0.0131023 0.0121643 0.00471339 0.00721402 0.0177963 0.0110023 0.0158725 0.0051425 0.00486452 0.00777327 0.0043762 0.00426652 0.019915 0.0156594 0.016477 0.0123975 0.145734 
  --------------------------------------------------------------
  Initialization seed trial #2 of 5; initialization seed = 493575242
  --------------------------------------------------------------
  Initialized k-means centers using random sampling: 22 centers
  Number of k-means iterations performed: 42
  BIC score: 116707
  Distortion: 48.1818
  Distortions/cluster: 2.47605 3.09841 1.15775 4.76541 0.493572 2.08195 2.28227 1.60159 0.748364 2.69708 2.75667 3.06041 5.365 2.0944 2.51787 1.50635 1.7913 1.00537 1.96439 3.14258 0.849086 0.725979 
  Variance: 0.0120094
  Variances/cluster: 0.0235815 0.0227824 0.00413481 0.0222682 0.00594665 0.0158927 0.0107149 0.00936603 0.00435095 0.0143462 0.00546959 0.145734 0.0168711 0.00634666 0.0108063 0.0100423 0.0107263 0.0134049 0.017384 0.0161989 0.0136949 0.00477618 
  --------------------------------------------------------------
  Initialization seed trial #3 of 5; initialization seed = 493575243
  --------------------------------------------------------------
  Initialized k-means centers using random sampling: 22 centers
  Number of k-means iterations performed: 73
  BIC score: 117127
  Distortion: 48.2285
  Distortions/cluster: 4.05948 3.41102 1.29676 1.5193 1.42055 1.02999 3.22731 1.11055 2.77514 1.51714 2.49939 3.64785 1.15914 3.87524 1.52902 1.20011 1.54405 1.26705 1.81492 2.33583 5.06825 0.920467 
  Variance: 0.0120211
  Variances/cluster: 0.0181227 0.0348063 0.0130986 0.0134451 0.0159613 0.0115729 0.146696 0.00841322 0.00549533 0.00824533 0.0107732 0.00784483 0.0178329 0.0132261 0.0209455 0.00714349 0.0102936 0.0162442 0.0142907 0.0124911 0.00913198 0.0143823 
  --------------------------------------------------------------
  Initialization seed trial #4 of 5; initialization seed = 493575244
  --------------------------------------------------------------
  Initialized k-means centers using random sampling: 22 centers
  Number of k-means iterations performed: 30
  BIC score: 118819
  Distortion: 45.4399
  Distortions/cluster: 2.26557 0.979116 0.26839 1.70383 0.831471 2.05885 2.49939 2.77514 1.14701 2.75667 3.06041 3.41019 1.34779 1.94964 1.62485 2.65028 1.50162 2.02332 1.90236 3.09725 3.41361 2.17314 
  Variance: 0.011326
  Variances/cluster: 0.0111057 0.00777076 0.0335487 0.0168696 0.0143357 0.00994611 0.0107732 0.00549533 0.0150922 0.00601893 0.145734 0.0163952 0.013614 0.0105959 0.0157752 0.0142488 0.00910071 0.015564 0.015853 0.017598 0.00740479 0.0118106 
  --------------------------------------------------------------
  Initialization seed trial #5 of 5; initialization seed = 493575245
  --------------------------------------------------------------
  Initialized k-means centers using random sampling: 22 centers
  Number of k-means iterations performed: 69
  BIC score: 118593
  Distortion: 46.2858
  Distortions/cluster: 2.49939 1.57358 2.40331 0.949963 2.39618 1.26705 4.99434 0.26839 4.16236 1.55767 1.08647 1.0672 2.06894 1.18869 2.89039 0.920467 3.66057 2.07827 2.77514 1.8092 3.87524 0.792979 
  Variance: 0.0115368
  Variances/cluster: 0.0107732 0.01558 0.0132779 0.0633309 0.0123515 0.0162442 0.00903136 0.0335487 0.0183364 0.0207689 0.0129341 0.00667 0.0154399 0.0121295 0.0118946 0.0143823 0.00785531 0.0156261 0.00549533 0.0113075 0.0132261 0.0991224 
  The best initialization seed trial was #4

--------------------------------------------------------------
Run number 5 of at most 7, k = 18
--------------------------------------------------------------
  --------------------------------------------------------------
  Initialization seed trial #1 of 5; initialization seed = 493575246
  --------------------------------------------------------------
  Initialized k-means centers using random sampling: 18 centers
  Number of k-means iterations performed: 26
  BIC score: 113875
  Distortion: 54.7496
  Distortions/cluster: 3.58822 2.24807 1.83735 3.48683 1.90213 2.37434 1.91802 1.77459 2.43044 4.6695 3.32621 1.72062 6.46595 3.5542 4.81487 0.904901 3.06041 4.67294 
  Variance: 0.0136329
  Variances/cluster: 0.0233001 0.0166524 0.0238616 0.0130106 0.00960672 0.0132644 0.0095424 0.0056878 0.00567859 0.021129 0.0176926 0.0200072 0.0184215 0.0157965 0.0202305 0.00400399 0.145734 0.0091987 
  --------------------------------------------------------------
  Initialization seed trial #2 of 5; initialization seed = 493575247
  --------------------------------------------------------------
  Initialized k-means centers using random sampling: 18 centers
  Number of k-means iterations performed: 20
  BIC score: 113521
  Distortion: 56.137
  Distortions/cluster: 4.94196 2.14028 5.59272 0.905985 1.26705 0.239645 0.26839 3.05206 5.09603 7.587 5.36752 3.47613 4.756 0.742478 1.84137 4.78802 0.748027 3.32634 
  Variance: 0.0139783
  Variances/cluster: 0.00920291 0.0114454 0.019555 0.00761332 0.0162442 0.00278657 0.0335487 0.013043 0.015975 0.0230608 0.0173146 0.151136 0.0235446 0.00541955 0.00468543 0.0210926 0.0126784 0.00690111 
  --------------------------------------------------------------
  Initialization seed trial #3 of 5; initialization seed = 493575248
  --------------------------------------------------------------
  Initialized k-means centers using random sampling: 18 centers
  Number of k-means iterations performed: 28
  BIC score: 113876
  Distortion: 54.8293
  Distortions/cluster: 1.1959 3.67761 2.49939 4.37803 3.22731 3.80205 1.47785 5.08501 4.9405 5.57034 2.77514 1.01351 1.75278 0.86996 3.46102 5.28242 0.980728 2.83975 
  Variance: 0.0136527
  Variances/cluster: 0.0244061 0.0129039 0.0107732 0.0230423 0.146696 0.0144017 0.00445136 0.0168378 0.0226628 0.0200372 0.00549533 0.00550823 0.0157908 0.0119173 0.0155902 0.0232706 0.00754406 0.00724427 
  --------------------------------------------------------------
  Initialization seed trial #4 of 5; initialization seed = 493575249
  --------------------------------------------------------------
  Initialized k-means centers using random sampling: 18 centers
  Number of k-means iterations performed: 15
  BIC score: 113940
  Distortion: 54.9833
  Distortions/cluster: 3.06457 3.22731 5.02789 5.94745 2.1575 1.59132 5.05284 5.21857 0.929454 0.90807 3.74123 3.14535 1.05577 3.43387 3.48885 1.00161 3.63487 2.35678 
  Variance: 0.0136911
  Variances/cluster: 0.0136811 0.146696 0.00932818 0.0266702 0.0105244 0.0105386 0.0156435 0.0223973 0.00774545 0.0148864 0.0166277 0.00670649 0.0140769 0.0225913 0.0218053 0.00695562 0.0166737 0.00499317 
  --------------------------------------------------------------
  Initialization seed trial #5 of 5; initialization seed = 493575250
  --------------------------------------------------------------
  Initialized k-means centers using random sampling: 18 centers
  Number of k-means iterations performed: 95
  BIC score: 113022
  Distortion: 56.7055
  Distortions/cluster: 3.47613 7.44072 1.10978 5.69054 3.7285 2.51043 1.00537 7.51529 2.79677 0.493428 0.834646 2.7318 5.37767 0.996014 3.66683 0.860436 1.71518 4.756 
  Variance: 0.0141199
  Variances/cluster: 0.151136 0.0228243 0.00853674 0.0176178 0.00784948 0.012246 0.0134049 0.0234121 0.00604055 0.00493428 0.00673101 0.0237548 0.0192748 0.0150911 0.01319 0.00761448 0.0043095 0.0235446 
  The best initialization seed trial was #4

--------------------------------------------------------------
Run number 6 of at most 7, k = 20
--------------------------------------------------------------
  --------------------------------------------------------------
  Initialization seed trial #1 of 5; initialization seed = 493575251
  --------------------------------------------------------------
  Initialized k-means centers using random sampling: 20 centers
  Number of k-means iterations performed: 42
  BIC score: 114075
  Distortion: 53.1785
  Distortions/cluster: 1.77459 1.23081 7.64252 2.80173 0.810752 0.773976 3.55955 0.576859 0.904901 3.22731 3.11969 6.37125 2.26034 3.51186 0.683309 3.84624 1.26705 1.90213 2.34186 4.57181 
  Variance: 0.0132483
  Variances/cluster: 0.0056878 0.00420073 0.0228135 0.0132784 0.00455479 0.0128996 0.0167903 0.00655521 0.00400399 0.146696 0.0139896 0.0208211 0.0111347 0.022227 0.0046802 0.0181426 0.0162442 0.00960672 0.00696983 0.0210682 
  --------------------------------------------------------------
  Initialization seed trial #2 of 5; initialization seed = 493575252
  --------------------------------------------------------------
  Initialized k-means centers using random sampling: 20 centers
  Number of k-means iterations performed: 32
  BIC score: 113800
  Distortion: 54.334
  Distortions/cluster: 4.59169 1.02756 1.86343 0.674367 1.2794 2.9465 2.66205 3.28238 0.686916 3.61724 5.221 9.7177 1.05577 1.72314 5.01379 1.57107 0.816938 0.532835 3.06041 2.98985 
  Variance: 0.0135361
  Variances/cluster: 0.0226192 0.00368301 0.00960529 0.0129686 0.0048462 0.0173323 0.017399 0.0129738 0.00464133 0.0230398 0.0196278 0.0131676 0.0140769 0.010507 0.0167685 0.00994346 0.00466822 0.0064197 0.145734 0.0184559 
  --------------------------------------------------------------
  Initialization seed trial #3 of 5; initialization seed = 493575253
  --------------------------------------------------------------
  Initialized k-means centers using random sampling: 20 centers
  Number of k-means iterations performed: 23
  BIC score: 108424
  Distortion: 64.992
  Distortions/cluster: 0.428437 2.658 7.08686 0.814373 0.33665 0.519389 1.21768 0.486168 7.51719 0.721958 2.5317 4.00633 1.05561 2.85209 5.82518 6.3477 0.673237 15.4223 4.18379 0.307294 
  Variance: 0.0161913
  Variances/cluster: 0.00504044 0.00589357 0.0228609 0.0129266 0.0120232 0.00786952 0.00822757 0.00528444 0.026469 0.0023289 0.0122304 0.0134893 0.0229479 0.0172854 0.018147 0.0226704 0.00510028 0.0976097 0.00862636 0.00357319 
  --------------------------------------------------------------
  Initialization seed trial #4 of 5; initialization seed = 493575254
  --------------------------------------------------------------
  Initialized k-means centers using random sampling: 20 centers
  Number of k-means iterations performed: 24
  BIC score: 115307
  Distortion: 51.5967
  Distortions/cluster: 0.820822 3.06041 4.50753 3.46853 1.1656 4.83546 2.49939 2.81002 3.16648 2.77514 1.45793 5.48128 1.26705 2.4259 1.79636 2.23556 3.71588 0.909866 0 3.19753 
  Variance: 0.0128542
  Variances/cluster: 0.0132391 0.145734 0.0225376 0.0134439 0.00557702 0.0164471 0.0107732 0.0169278 0.0218378 0.00549533 0.00457032 0.0200779 0.0162442 0.011231 0.0106294 0.00612483 0.0177793 0.00722116 0 0.0190329 
  --------------------------------------------------------------
  Initialization seed trial #5 of 5; initialization seed = 493575255
  --------------------------------------------------------------
  Initialized k-means centers using random sampling: 20 centers
  Number of k-means iterations performed: 40
  BIC score: 115432
  Distortion: 51.0629
  Distortions/cluster: 3.41009 2.94808 0.825783 1.80752 0.685651 2.59343 1.22796 0.702296 4.84327 0.500868 2.01478 4.60457 1.16285 2.49939 2.79636 3.38736 3.06041 2.77514 3.76222 5.45484 
  Variance: 0.0127212
  Variances/cluster: 0.0224348 0.0173416 0.00469195 0.00573815 0.0129368 0.0114754 0.0159475 0.00468197 0.0164737 0.0063401 0.0114476 0.0223523 0.00406589 0.0107732 0.0179254 0.0132319 0.145734 0.00549533 0.017663 0.0201286 
  The best initialization seed trial was #5

--------------------------------------------------------------
Run number 7 of at most 7, k = 19
--------------------------------------------------------------
  --------------------------------------------------------------
  Initialization seed trial #1 of 5; initialization seed = 493575256
  --------------------------------------------------------------
  Initialized k-means centers using random sampling: 19 centers
  Number of k-means iterations performed: 55
  BIC score: 116428
  Distortion: 50.4366
  Distortions/cluster: 2.96308 2.65276 3.79884 2.75667 1.21768 2.39422 2.30217 3.47613 4.45902 4.07991 4.05767 2.51787 0.920467 2.19566 4.92933 1.26705 1.75741 2.42231 0.26839 
  Variance: 0.012562
  Variances/cluster: 0.0120942 0.00589503 0.0130994 0.00546959 0.00822757 0.0165119 0.0157683 0.151136 0.0159822 0.0181329 0.00847112 0.0108063 0.0143823 0.0160267 0.0185313 0.0162442 0.0174001 0.0124861 0.0335487 
  --------------------------------------------------------------
  Initialization seed trial #2 of 5; initialization seed = 493575257
  --------------------------------------------------------------
  Initialized k-means centers using random sampling: 19 centers
  Number of k-means iterations performed: 42
  BIC score: 114850
  Distortion: 52.5762
  Distortions/cluster: 3.73673 3.47613 2.15603 0.899474 0.73376 4.0737 2.51787 5.15838 4.60969 2.29368 1.22796 0.976718 2.14436 1.40423 2.75667 3.13322 2.62125 6.39017 2.26613 
  Variance: 0.0130949
  Variances/cluster: 0.0177096 0.151136 0.00573413 0.00713868 0.0135881 0.0174837 0.0108063 0.0170807 0.0180772 0.0160397 0.0159475 0.00542621 0.0116541 0.00442974 0.00546959 0.0129472 0.0168029 0.0224217 0.0198784 
  --------------------------------------------------------------
  Initialization seed trial #3 of 5; initialization seed = 493575258
  --------------------------------------------------------------
  Initialized k-means centers using random sampling: 19 centers
  Number of k-means iterations performed: 24
  BIC score: 115698
  Distortion: 51.2809
  Distortions/cluster: 3.63886 1.06058 1.03226 2.77514 2.09687 1.18778 3.77447 3.8911 3.55012 2.57718 2.58125 1.97894 2.49939 3.07908 2.7623 3.06041 3.0229 4.43154 2.28069 
  Variance: 0.0127723
  Variances/cluster: 0.0228859 0.014141 0.0229391 0.00549533 0.0112735 0.00802552 0.0186855 0.00835 0.0165122 0.00585722 0.016337 0.0109941 0.0107732 0.0125677 0.0135407 0.145734 0.0146743 0.023081 0.0167698 
  --------------------------------------------------------------
  Initialization seed trial #4 of 5; initialization seed = 493575259
  --------------------------------------------------------------
  Initialized k-means centers using random sampling: 19 centers
  Number of k-means iterations performed: 42
  BIC score: 114772
  Distortion: 53.0372
  Distortions/cluster: 3.48977 0.750839 3.33907 2.60647 3.10456 4.0175 5.17793 0.697221 3.97822 1.54804 1.78341 4.15481 4.99246 2.80778 0.664062 2.59868 1.79741 2.74244 2.7865 
  Variance: 0.0132098
  Variances/cluster: 0.0152392 0.0072897 0.0131979 0.0167081 0.0204247 0.0184289 0.0210485 0.0051646 0.0185898 0.00395918 0.104906 0.0142777 0.009402 0.140389 0.00626473 0.0114479 0.0206599 0.0143583 0.00621987 
  --------------------------------------------------------------
  Initialization seed trial #5 of 5; initialization seed = 493575260
  --------------------------------------------------------------
  Initialized k-means centers using random sampling: 19 centers
  Number of k-means iterations performed: 42
  BIC score: 115695
  Distortion: 51.2874
  Distortions/cluster: 2.75667 2.68986 2.47125 3.06041 2.54893 2.51787 2.07446 1.21692 1.9889 3.02551 2.50937 2.04171 1.26705 0.748027 4.90519 3.81343 5.3427 2.7897 3.5194 
  Variance: 0.0127739
  Variances/cluster: 0.00546959 0.0168116 0.0146228 0.145734 0.0058596 0.0108063 0.0103723 0.00822246 0.0104679 0.00678366 0.0170706 0.0110363 0.0162442 0.0126784 0.0165158 0.0264822 0.0194989 0.0217945 0.017865 
  The best initialization seed trial was #1

------------------------------------------------------------------
------------------------------------------------------------------
Post-processing runs
------------------------------------------------------------------
------------------------------------------------------------------
  For the BIC threshold, the best clustering was run 7 (k = 19)
  Post-processing run 7 (k = 19)
    Saving simpoints of all non-empty clusters to file '/home/cuihongwei/experiment/simpoint/401.bzip2/arm-401.bzip2-input1-190517-230243/simpoint_file'
    Saving weights of all non-empty clusters to file '/home/cuihongwei/experiment/simpoint/401.bzip2/arm-401.bzip2-input1-190517-230243/weight_file'
