
******************************directory****************************
spec_dir: /home/cuihongwei/experiment/mcpat-gem5-master/spec2006
run_dir:  /home/cuihongwei/experiment/simpoint/401.bzip2/arm-401.bzip2-input3-190517-230300/run
gem5_dir: /home/cuihongwei/experiment/experiment-gem5/raw-gem5
gem5_output_dir: /home/cuihongwei/experiment/simpoint/401.bzip2/arm-401.bzip2-input3-190517-230300
benchmark_output:/home/cuihongwei/experiment/simpoint/401.bzip2/arm-401.bzip2-input3-190517-230300

******************************benchmark****************************
target:     401.bzip2
executable: bzip2
args:       liberty.jpg 30
input:      
output:     /home/cuihongwei/experiment/simpoint/401.bzip2/arm-401.bzip2-input3-190517-230300/run/liberty.jpg.out
errout:     /home/cuihongwei/experiment/simpoint/401.bzip2/arm-401.bzip2-input3-190517-230300/run/liberty.jpg.err

******************************gem5****************************
arch:       /home/cuihongwei/experiment/experiment-gem5/raw-gem5/build/ARM/gem5.opt
config:     /home/cuihongwei/experiment/experiment-gem5/raw-gem5/configs/example/se.py
args:       --simpoint-profile --simpoint-interval=100000000 --maxinsts=900000000000 --cpu-type=NonCachingSimpleCPU --mem-type=SimpleMemory --mem-size=8GB

******************************simulation****************************
start time:(year-mon-day hour-minute-second)19-05-17 23-03-00
gem5 Simulator System.  http://gem5.org
gem5 is copyrighted software; use the --copyright option for details.

gem5 compiled May 17 2019 22:58:52
gem5 started May 17 2019 23:03:01
gem5 executing on mprc-R730, pid 44784
command line: /home/cuihongwei/experiment/experiment-gem5/raw-gem5/build/ARM/gem5.opt --outdir=/home/cuihongwei/experiment/simpoint/401.bzip2/arm-401.bzip2-input3-190517-230300 --debug-flags=ShowRunning /home/cuihongwei/experiment/experiment-gem5/raw-gem5/configs/example/se.py --simpoint-profile --simpoint-interval=100000000 --maxinsts=900000000000 --cpu-type=NonCachingSimpleCPU --mem-type=SimpleMemory --mem-size=8GB --cmd=bzip2 '--options=liberty.jpg 30' --output=/home/cuihongwei/experiment/simpoint/401.bzip2/arm-401.bzip2-input3-190517-230300/run/liberty.jpg.out --input= --errout=/home/cuihongwei/experiment/simpoint/401.bzip2/arm-401.bzip2-input3-190517-230300/run/liberty.jpg.err

Global frequency set at 1000000000000 ticks per second
**** REAL SIMULATION ****
      0: system.cpu: Running Insts:               0
5000008500: system.cpu: Running Insts:        10000000
10000010000: system.cpu: Running Insts:        20000000
15000010000: system.cpu: Running Insts:        30000000
20000010500: system.cpu: Running Insts:        40000000
25000010500: system.cpu: Running Insts:        50000000
30000010500: system.cpu: Running Insts:        60000000
35000010500: system.cpu: Running Insts:        70000000
40000010500: system.cpu: Running Insts:        80000000
45000010500: system.cpu: Running Insts:        90000000
50000010500: system.cpu: Running Insts:       100000000
55000010500: system.cpu: Running Insts:       110000000
60000010500: system.cpu: Running Insts:       120000000
65000010500: system.cpu: Running Insts:       130000000
70000010500: system.cpu: Running Insts:       140000000
75000010500: system.cpu: Running Insts:       150000000
80000010500: system.cpu: Running Insts:       160000000
85000010500: system.cpu: Running Insts:       170000000
90000010500: system.cpu: Running Insts:       180000000
95000010500: system.cpu: Running Insts:       190000000
100000010500: system.cpu: Running Insts:       200000000
105000010500: system.cpu: Running Insts:       210000000
110000010500: system.cpu: Running Insts:       220000000
115000010500: system.cpu: Running Insts:       230000000
120000010500: system.cpu: Running Insts:       240000000
125000010500: system.cpu: Running Insts:       250000000
130000010500: system.cpu: Running Insts:       260000000
135000010500: system.cpu: Running Insts:       270000000
140000010500: system.cpu: Running Insts:       280000000
145000010500: system.cpu: Running Insts:       290000000
150000010500: system.cpu: Running Insts:       300000000
155000010500: system.cpu: Running Insts:       310000000
160000010500: system.cpu: Running Insts:       320000000
165000010500: system.cpu: Running Insts:       330000000
170000010500: system.cpu: Running Insts:       340000000
175000010500: system.cpu: Running Insts:       350000000
180000010500: system.cpu: Running Insts:       360000000
185000010500: system.cpu: Running Insts:       370000000
190000010500: system.cpu: Running Insts:       380000000
195000010500: system.cpu: Running Insts:       390000000
200000010500: system.cpu: Running Insts:       400000000
205000010500: system.cpu: Running Insts:       410000000
210000010500: system.cpu: Running Insts:       420000000
215000010500: system.cpu: Running Insts:       430000000
220000010500: system.cpu: Running Insts:       440000000
225000010500: system.cpu: Running Insts:       450000000
230000010500: system.cpu: Running Insts:       460000000
235000010500: system.cpu: Running Insts:       470000000
240000010500: system.cpu: Running Insts:       480000000
245000010500: system.cpu: Running Insts:       490000000
250000010500: system.cpu: Running Insts:       500000000
255000010500: system.cpu: Running Insts:       510000000
260000010500: system.cpu: Running Insts:       520000000
265000010500: system.cpu: Running Insts:       530000000
270000010500: system.cpu: Running Insts:       540000000
275000010500: system.cpu: Running Insts:       550000000
280000010500: system.cpu: Running Insts:       560000000
285000010500: system.cpu: Running Insts:       570000000
290000010500: system.cpu: Running Insts:       580000000
295000010500: system.cpu: Running Insts:       590000000
300000010500: system.cpu: Running Insts:       600000000
305000010500: system.cpu: Running Insts:       610000000
310000010500: system.cpu: Running Insts:       620000000
315000010500: system.cpu: Running Insts:       630000000
320000010500: system.cpu: Running Insts:       640000000
325000010500: system.cpu: Running Insts:       650000000
330000010500: system.cpu: Running Insts:       660000000
335000010500: system.cpu: Running Insts:       670000000
340000010500: system.cpu: Running Insts:       680000000
345000010500: system.cpu: Running Insts:       690000000
350000010500: system.cpu: Running Insts:       700000000
355000010500: system.cpu: Running Insts:       710000000
360000010500: system.cpu: Running Insts:       720000000
365000010500: system.cpu: Running Insts:       730000000
370000010500: system.cpu: Running Insts:       740000000
375000010500: system.cpu: Running Insts:       750000000
380000010500: system.cpu: Running Insts:       760000000
385000010500: system.cpu: Running Insts:       770000000
390000010500: system.cpu: Running Insts:       780000000
395000010500: system.cpu: Running Insts:       790000000
400000010500: system.cpu: Running Insts:       800000000
405000010500: system.cpu: Running Insts:       810000000
410000010500: system.cpu: Running Insts:       820000000
415000010500: system.cpu: Running Insts:       830000000
420000010500: system.cpu: Running Insts:       840000000
425000010500: system.cpu: Running Insts:       850000000
430000010500: system.cpu: Running Insts:       860000000
435000010500: system.cpu: Running Insts:       870000000
440000010500: system.cpu: Running Insts:       880000000
445000010500: system.cpu: Running Insts:       890000000
450000010500: system.cpu: Running Insts:       900000000
455000010500: system.cpu: Running Insts:       910000000
460000010500: system.cpu: Running Insts:       920000000
465000010500: system.cpu: Running Insts:       930000000
470000010500: system.cpu: Running Insts:       940000000
475000010500: system.cpu: Running Insts:       950000000
480000010500: system.cpu: Running Insts:       960000000
485000010500: system.cpu: Running Insts:       970000000
490000010500: system.cpu: Running Insts:       980000000
495000010500: system.cpu: Running Insts:       990000000
500000010500: system.cpu: Running Insts:      1000000000
505000010500: system.cpu: Running Insts:      1010000000
510000010500: system.cpu: Running Insts:      1020000000
515000010500: system.cpu: Running Insts:      1030000000
520000010500: system.cpu: Running Insts:      1040000000
525000010500: system.cpu: Running Insts:      1050000000
530000010500: system.cpu: Running Insts:      1060000000
535000010500: system.cpu: Running Insts:      1070000000
540000010500: system.cpu: Running Insts:      1080000000
545000010500: system.cpu: Running Insts:      1090000000
550000010500: system.cpu: Running Insts:      1100000000
555000010500: system.cpu: Running Insts:      1110000000
560000010500: system.cpu: Running Insts:      1120000000
565000010500: system.cpu: Running Insts:      1130000000
570000010500: system.cpu: Running Insts:      1140000000
575000010500: system.cpu: Running Insts:      1150000000
580000010500: system.cpu: Running Insts:      1160000000
585000010500: system.cpu: Running Insts:      1170000000
590000010500: system.cpu: Running Insts:      1180000000
595000010500: system.cpu: Running Insts:      1190000000
600000010500: system.cpu: Running Insts:      1200000000
605000010500: system.cpu: Running Insts:      1210000000
610000010500: system.cpu: Running Insts:      1220000000
615000010500: system.cpu: Running Insts:      1230000000
620000010500: system.cpu: Running Insts:      1240000000
625000010500: system.cpu: Running Insts:      1250000000
630000010500: system.cpu: Running Insts:      1260000000
635000010500: system.cpu: Running Insts:      1270000000
640000011000: system.cpu: Running Insts:      1280000000
645000011000: system.cpu: Running Insts:      1290000000
650000011000: system.cpu: Running Insts:      1300000000
655000011000: system.cpu: Running Insts:      1310000000
660000011000: system.cpu: Running Insts:      1320000000
665000011000: system.cpu: Running Insts:      1330000000
670000011000: system.cpu: Running Insts:      1340000000
675000011000: system.cpu: Running Insts:      1350000000
680000011000: system.cpu: Running Insts:      1360000000
685000011000: system.cpu: Running Insts:      1370000000
690000011000: system.cpu: Running Insts:      1380000000
695000011000: system.cpu: Running Insts:      1390000000
700000011000: system.cpu: Running Insts:      1400000000
705000011000: system.cpu: Running Insts:      1410000000
710000011000: system.cpu: Running Insts:      1420000000
715000011000: system.cpu: Running Insts:      1430000000
720000011000: system.cpu: Running Insts:      1440000000
725000011000: system.cpu: Running Insts:      1450000000
730000011000: system.cpu: Running Insts:      1460000000
735000011000: system.cpu: Running Insts:      1470000000
740000011000: system.cpu: Running Insts:      1480000000
745000011000: system.cpu: Running Insts:      1490000000
750000011000: system.cpu: Running Insts:      1500000000
755000011000: system.cpu: Running Insts:      1510000000
760000011000: system.cpu: Running Insts:      1520000000
765000011000: system.cpu: Running Insts:      1530000000
770000011000: system.cpu: Running Insts:      1540000000
775000011000: system.cpu: Running Insts:      1550000000
780000011000: system.cpu: Running Insts:      1560000000
785000011000: system.cpu: Running Insts:      1570000000
790000011000: system.cpu: Running Insts:      1580000000
795000011000: system.cpu: Running Insts:      1590000000
800000011000: system.cpu: Running Insts:      1600000000
805000011000: system.cpu: Running Insts:      1610000000
810000011000: system.cpu: Running Insts:      1620000000
815000011000: system.cpu: Running Insts:      1630000000
820000011000: system.cpu: Running Insts:      1640000000
825000011000: system.cpu: Running Insts:      1650000000
830000011000: system.cpu: Running Insts:      1660000000
835000011000: system.cpu: Running Insts:      1670000000
840000011000: system.cpu: Running Insts:      1680000000
845000011000: system.cpu: Running Insts:      1690000000
850000011000: system.cpu: Running Insts:      1700000000
855000011000: system.cpu: Running Insts:      1710000000
860000011000: system.cpu: Running Insts:      1720000000
865000011000: system.cpu: Running Insts:      1730000000
870000011000: system.cpu: Running Insts:      1740000000
875000011000: system.cpu: Running Insts:      1750000000
880000011000: system.cpu: Running Insts:      1760000000
885000011000: system.cpu: Running Insts:      1770000000
890000011000: system.cpu: Running Insts:      1780000000
895000011000: system.cpu: Running Insts:      1790000000
900000011000: system.cpu: Running Insts:      1800000000
905000011000: system.cpu: Running Insts:      1810000000
910000011000: system.cpu: Running Insts:      1820000000
915000011000: system.cpu: Running Insts:      1830000000
920000011000: system.cpu: Running Insts:      1840000000
925000011000: system.cpu: Running Insts:      1850000000
930000011000: system.cpu: Running Insts:      1860000000
935000011000: system.cpu: Running Insts:      1870000000
940000011000: system.cpu: Running Insts:      1880000000
945000011000: system.cpu: Running Insts:      1890000000
950000011000: system.cpu: Running Insts:      1900000000
955000011000: system.cpu: Running Insts:      1910000000
960000011000: system.cpu: Running Insts:      1920000000
965000011000: system.cpu: Running Insts:      1930000000
970000011000: system.cpu: Running Insts:      1940000000
975000011000: system.cpu: Running Insts:      1950000000
980000011000: system.cpu: Running Insts:      1960000000
985000011000: system.cpu: Running Insts:      1970000000
990000011000: system.cpu: Running Insts:      1980000000
995000011000: system.cpu: Running Insts:      1990000000
1000000011000: system.cpu: Running Insts:      2000000000
1005000011000: system.cpu: Running Insts:      2010000000
1010000011000: system.cpu: Running Insts:      2020000000
1015000011000: system.cpu: Running Insts:      2030000000
1020000011000: system.cpu: Running Insts:      2040000000
1025000011000: system.cpu: Running Insts:      2050000000
1030000011000: system.cpu: Running Insts:      2060000000
1035000011000: system.cpu: Running Insts:      2070000000
1040000011000: system.cpu: Running Insts:      2080000000
1045000011000: system.cpu: Running Insts:      2090000000
1050000011000: system.cpu: Running Insts:      2100000000
1055000011000: system.cpu: Running Insts:      2110000000
1060000011000: system.cpu: Running Insts:      2120000000
1065000011000: system.cpu: Running Insts:      2130000000
1070000011000: system.cpu: Running Insts:      2140000000
1075000011000: system.cpu: Running Insts:      2150000000
1080000011000: system.cpu: Running Insts:      2160000000
1085000011000: system.cpu: Running Insts:      2170000000
1090000011000: system.cpu: Running Insts:      2180000000
1095000011000: system.cpu: Running Insts:      2190000000
1100000011000: system.cpu: Running Insts:      2200000000
1105000011000: system.cpu: Running Insts:      2210000000
1110000011000: system.cpu: Running Insts:      2220000000
1115000011000: system.cpu: Running Insts:      2230000000
1120000011000: system.cpu: Running Insts:      2240000000
1125000011000: system.cpu: Running Insts:      2250000000
1130000011000: system.cpu: Running Insts:      2260000000
1135000011000: system.cpu: Running Insts:      2270000000
1140000011000: system.cpu: Running Insts:      2280000000
1145000011000: system.cpu: Running Insts:      2290000000
1150000011000: system.cpu: Running Insts:      2300000000
1155000011000: system.cpu: Running Insts:      2310000000
1160000011000: system.cpu: Running Insts:      2320000000
1165000011000: system.cpu: Running Insts:      2330000000
1170000011000: system.cpu: Running Insts:      2340000000
1175000011000: system.cpu: Running Insts:      2350000000
1180000011000: system.cpu: Running Insts:      2360000000
1185000011000: system.cpu: Running Insts:      2370000000
1190000011000: system.cpu: Running Insts:      2380000000
1195000011000: system.cpu: Running Insts:      2390000000
1200000011000: system.cpu: Running Insts:      2400000000
1205000011000: system.cpu: Running Insts:      2410000000
1210000011000: system.cpu: Running Insts:      2420000000
1215000011000: system.cpu: Running Insts:      2430000000
1220000011000: system.cpu: Running Insts:      2440000000
1225000011000: system.cpu: Running Insts:      2450000000
1230000011000: system.cpu: Running Insts:      2460000000
1235000011000: system.cpu: Running Insts:      2470000000
1240000011000: system.cpu: Running Insts:      2480000000
1245000011000: system.cpu: Running Insts:      2490000000
1250000011000: system.cpu: Running Insts:      2500000000
1255000011000: system.cpu: Running Insts:      2510000000
1260000011000: system.cpu: Running Insts:      2520000000
1265000011000: system.cpu: Running Insts:      2530000000
1270000011000: system.cpu: Running Insts:      2540000000
1275000011000: system.cpu: Running Insts:      2550000000
1280000011000: system.cpu: Running Insts:      2560000000
1285000011000: system.cpu: Running Insts:      2570000000
1290000011000: system.cpu: Running Insts:      2580000000
1295000011000: system.cpu: Running Insts:      2590000000
1300000011000: system.cpu: Running Insts:      2600000000
1305000011000: system.cpu: Running Insts:      2610000000
1310000011000: system.cpu: Running Insts:      2620000000
1315000011000: system.cpu: Running Insts:      2630000000
1320000011000: system.cpu: Running Insts:      2640000000
1325000011000: system.cpu: Running Insts:      2650000000
1330000011000: system.cpu: Running Insts:      2660000000
1335000011000: system.cpu: Running Insts:      2670000000
1340000011000: system.cpu: Running Insts:      2680000000
1345000011000: system.cpu: Running Insts:      2690000000
1350000011000: system.cpu: Running Insts:      2700000000
1355000011000: system.cpu: Running Insts:      2710000000
1360000011000: system.cpu: Running Insts:      2720000000
1365000011000: system.cpu: Running Insts:      2730000000
1370000011000: system.cpu: Running Insts:      2740000000
1375000011000: system.cpu: Running Insts:      2750000000
1380000011000: system.cpu: Running Insts:      2760000000
1385000011000: system.cpu: Running Insts:      2770000000
1390000011000: system.cpu: Running Insts:      2780000000
1395000011000: system.cpu: Running Insts:      2790000000
1400000011000: system.cpu: Running Insts:      2800000000
1405000011000: system.cpu: Running Insts:      2810000000
1410000011000: system.cpu: Running Insts:      2820000000
1415000011000: system.cpu: Running Insts:      2830000000
1420000011000: system.cpu: Running Insts:      2840000000
1425000011000: system.cpu: Running Insts:      2850000000
1430000011000: system.cpu: Running Insts:      2860000000
1435000011000: system.cpu: Running Insts:      2870000000
1440000011000: system.cpu: Running Insts:      2880000000
1445000011000: system.cpu: Running Insts:      2890000000
1450000011000: system.cpu: Running Insts:      2900000000
1455000011000: system.cpu: Running Insts:      2910000000
1460000011000: system.cpu: Running Insts:      2920000000
1465000011000: system.cpu: Running Insts:      2930000000
1470000011000: system.cpu: Running Insts:      2940000000
1475000011000: system.cpu: Running Insts:      2950000000
1480000011000: system.cpu: Running Insts:      2960000000
1485000011000: system.cpu: Running Insts:      2970000000
1490000011000: system.cpu: Running Insts:      2980000000
1495000011000: system.cpu: Running Insts:      2990000000
1500000011000: system.cpu: Running Insts:      3000000000
1505000011000: system.cpu: Running Insts:      3010000000
1510000011000: system.cpu: Running Insts:      3020000000
1515000011000: system.cpu: Running Insts:      3030000000
1520000011000: system.cpu: Running Insts:      3040000000
1525000011000: system.cpu: Running Insts:      3050000000
1530000011000: system.cpu: Running Insts:      3060000000
1535000011000: system.cpu: Running Insts:      3070000000
1540000011000: system.cpu: Running Insts:      3080000000
1545000011000: system.cpu: Running Insts:      3090000000
1550000011000: system.cpu: Running Insts:      3100000000
1555000011000: system.cpu: Running Insts:      3110000000
1560000011000: system.cpu: Running Insts:      3120000000
1565000011000: system.cpu: Running Insts:      3130000000
1570000011000: system.cpu: Running Insts:      3140000000
1575000011000: system.cpu: Running Insts:      3150000000
1580000011000: system.cpu: Running Insts:      3160000000
1585000011000: system.cpu: Running Insts:      3170000000
1590000011000: system.cpu: Running Insts:      3180000000
1595000011000: system.cpu: Running Insts:      3190000000
1600000011000: system.cpu: Running Insts:      3200000000
1605000011000: system.cpu: Running Insts:      3210000000
1610000011000: system.cpu: Running Insts:      3220000000
1615000011000: system.cpu: Running Insts:      3230000000
1620000011000: system.cpu: Running Insts:      3240000000
1625000011000: system.cpu: Running Insts:      3250000000
1630000011000: system.cpu: Running Insts:      3260000000
1635000011000: system.cpu: Running Insts:      3270000000
1640000011000: system.cpu: Running Insts:      3280000000
1645000011000: system.cpu: Running Insts:      3290000000
1650000011000: system.cpu: Running Insts:      3300000000
1655000011000: system.cpu: Running Insts:      3310000000
1660000011000: system.cpu: Running Insts:      3320000000
1665000011000: system.cpu: Running Insts:      3330000000
1670000011000: system.cpu: Running Insts:      3340000000
1675000011000: system.cpu: Running Insts:      3350000000
1680000011000: system.cpu: Running Insts:      3360000000
1685000011000: system.cpu: Running Insts:      3370000000
1690000011000: system.cpu: Running Insts:      3380000000
1695000011000: system.cpu: Running Insts:      3390000000
1700000011000: system.cpu: Running Insts:      3400000000
1705000011000: system.cpu: Running Insts:      3410000000
1710000011000: system.cpu: Running Insts:      3420000000
1715000011000: system.cpu: Running Insts:      3430000000
1720000011000: system.cpu: Running Insts:      3440000000
1725000011000: system.cpu: Running Insts:      3450000000
1730000011000: system.cpu: Running Insts:      3460000000
1735000011000: system.cpu: Running Insts:      3470000000
1740000011000: system.cpu: Running Insts:      3480000000
1745000011000: system.cpu: Running Insts:      3490000000
1750000011000: system.cpu: Running Insts:      3500000000
1755000011000: system.cpu: Running Insts:      3510000000
1760000011000: system.cpu: Running Insts:      3520000000
1765000011000: system.cpu: Running Insts:      3530000000
1770000011000: system.cpu: Running Insts:      3540000000
1775000011000: system.cpu: Running Insts:      3550000000
1780000011000: system.cpu: Running Insts:      3560000000
1785000011000: system.cpu: Running Insts:      3570000000
1790000011000: system.cpu: Running Insts:      3580000000
1795000011000: system.cpu: Running Insts:      3590000000
1800000011000: system.cpu: Running Insts:      3600000000
1805000011000: system.cpu: Running Insts:      3610000000
1810000011000: system.cpu: Running Insts:      3620000000
1815000011000: system.cpu: Running Insts:      3630000000
1820000011000: system.cpu: Running Insts:      3640000000
1825000011000: system.cpu: Running Insts:      3650000000
1830000011000: system.cpu: Running Insts:      3660000000
1835000011000: system.cpu: Running Insts:      3670000000
1840000011000: system.cpu: Running Insts:      3680000000
1845000011000: system.cpu: Running Insts:      3690000000
1850000011000: system.cpu: Running Insts:      3700000000
1855000011000: system.cpu: Running Insts:      3710000000
1860000011000: system.cpu: Running Insts:      3720000000
1865000011000: system.cpu: Running Insts:      3730000000
1870000011000: system.cpu: Running Insts:      3740000000
1875000011000: system.cpu: Running Insts:      3750000000
1880000011000: system.cpu: Running Insts:      3760000000
1885000011000: system.cpu: Running Insts:      3770000000
1890000011000: system.cpu: Running Insts:      3780000000
1895000011000: system.cpu: Running Insts:      3790000000
1900000011000: system.cpu: Running Insts:      3800000000
1905000011000: system.cpu: Running Insts:      3810000000
1910000011000: system.cpu: Running Insts:      3820000000
1915000011000: system.cpu: Running Insts:      3830000000
1920000011000: system.cpu: Running Insts:      3840000000
1925000011000: system.cpu: Running Insts:      3850000000
1930000011000: system.cpu: Running Insts:      3860000000
1935000011000: system.cpu: Running Insts:      3870000000
1940000011000: system.cpu: Running Insts:      3880000000
1945000011000: system.cpu: Running Insts:      3890000000
1950000011000: system.cpu: Running Insts:      3900000000
1955000011000: system.cpu: Running Insts:      3910000000
1960000011000: system.cpu: Running Insts:      3920000000
1965000011000: system.cpu: Running Insts:      3930000000
1970000011000: system.cpu: Running Insts:      3940000000
1975000011000: system.cpu: Running Insts:      3950000000
1980000011000: system.cpu: Running Insts:      3960000000
1985000011000: system.cpu: Running Insts:      3970000000
1990000011000: system.cpu: Running Insts:      3980000000
1995000011000: system.cpu: Running Insts:      3990000000
2000000011000: system.cpu: Running Insts:      4000000000
2005000011000: system.cpu: Running Insts:      4010000000
2010000011000: system.cpu: Running Insts:      4020000000
2015000011000: system.cpu: Running Insts:      4030000000
2020000011000: system.cpu: Running Insts:      4040000000
2025000011000: system.cpu: Running Insts:      4050000000
2030000011000: system.cpu: Running Insts:      4060000000
2035000011000: system.cpu: Running Insts:      4070000000
2040000011000: system.cpu: Running Insts:      4080000000
2045000011000: system.cpu: Running Insts:      4090000000
2050000011000: system.cpu: Running Insts:      4100000000
2055000011000: system.cpu: Running Insts:      4110000000
2060000011000: system.cpu: Running Insts:      4120000000
2065000011000: system.cpu: Running Insts:      4130000000
2070000011000: system.cpu: Running Insts:      4140000000
2075000011000: system.cpu: Running Insts:      4150000000
2080000011000: system.cpu: Running Insts:      4160000000
2085000011000: system.cpu: Running Insts:      4170000000
2090000011000: system.cpu: Running Insts:      4180000000
2095000011000: system.cpu: Running Insts:      4190000000
2100000011000: system.cpu: Running Insts:      4200000000
2105000011000: system.cpu: Running Insts:      4210000000
2110000011000: system.cpu: Running Insts:      4220000000
2115000011000: system.cpu: Running Insts:      4230000000
2120000011000: system.cpu: Running Insts:      4240000000
2125000011000: system.cpu: Running Insts:      4250000000
2130000011000: system.cpu: Running Insts:      4260000000
2135000011000: system.cpu: Running Insts:      4270000000
2140000011000: system.cpu: Running Insts:      4280000000
2145000011000: system.cpu: Running Insts:      4290000000
2150000011000: system.cpu: Running Insts:      4300000000
2155000011000: system.cpu: Running Insts:      4310000000
2160000011000: system.cpu: Running Insts:      4320000000
2165000011000: system.cpu: Running Insts:      4330000000
2170000011000: system.cpu: Running Insts:      4340000000
2175000011000: system.cpu: Running Insts:      4350000000
2180000011000: system.cpu: Running Insts:      4360000000
2185000011000: system.cpu: Running Insts:      4370000000
2190000011000: system.cpu: Running Insts:      4380000000
2195000011000: system.cpu: Running Insts:      4390000000
2200000011000: system.cpu: Running Insts:      4400000000
2205000011000: system.cpu: Running Insts:      4410000000
2210000011000: system.cpu: Running Insts:      4420000000
2215000011000: system.cpu: Running Insts:      4430000000
2220000011000: system.cpu: Running Insts:      4440000000
2225000011000: system.cpu: Running Insts:      4450000000
2230000011000: system.cpu: Running Insts:      4460000000
2235000011000: system.cpu: Running Insts:      4470000000
2240000011000: system.cpu: Running Insts:      4480000000
2245000011000: system.cpu: Running Insts:      4490000000
2250000011000: system.cpu: Running Insts:      4500000000
2255000011000: system.cpu: Running Insts:      4510000000
2260000011000: system.cpu: Running Insts:      4520000000
2265000011000: system.cpu: Running Insts:      4530000000
2270000011000: system.cpu: Running Insts:      4540000000
2275000011000: system.cpu: Running Insts:      4550000000
2280000011000: system.cpu: Running Insts:      4560000000
2285000011000: system.cpu: Running Insts:      4570000000
2290000011000: system.cpu: Running Insts:      4580000000
2295000011000: system.cpu: Running Insts:      4590000000
2300000011000: system.cpu: Running Insts:      4600000000
2305000011000: system.cpu: Running Insts:      4610000000
2310000011000: system.cpu: Running Insts:      4620000000
2315000011000: system.cpu: Running Insts:      4630000000
2320000011000: system.cpu: Running Insts:      4640000000
2325000011000: system.cpu: Running Insts:      4650000000
2330000011000: system.cpu: Running Insts:      4660000000
2335000011000: system.cpu: Running Insts:      4670000000
2340000011000: system.cpu: Running Insts:      4680000000
2345000011000: system.cpu: Running Insts:      4690000000
2350000011000: system.cpu: Running Insts:      4700000000
2355000011000: system.cpu: Running Insts:      4710000000
2360000011000: system.cpu: Running Insts:      4720000000
2365000011000: system.cpu: Running Insts:      4730000000
2370000011000: system.cpu: Running Insts:      4740000000
2375000011000: system.cpu: Running Insts:      4750000000
2380000011000: system.cpu: Running Insts:      4760000000
2385000011000: system.cpu: Running Insts:      4770000000
2390000011000: system.cpu: Running Insts:      4780000000
2395000011000: system.cpu: Running Insts:      4790000000
2400000011000: system.cpu: Running Insts:      4800000000
2405000011000: system.cpu: Running Insts:      4810000000
2410000011000: system.cpu: Running Insts:      4820000000
2415000011000: system.cpu: Running Insts:      4830000000
2420000011000: system.cpu: Running Insts:      4840000000
2425000011000: system.cpu: Running Insts:      4850000000
2430000011000: system.cpu: Running Insts:      4860000000
2435000011000: system.cpu: Running Insts:      4870000000
2440000011000: system.cpu: Running Insts:      4880000000
2445000011000: system.cpu: Running Insts:      4890000000
2450000011000: system.cpu: Running Insts:      4900000000
2455000011000: system.cpu: Running Insts:      4910000000
2460000011000: system.cpu: Running Insts:      4920000000
2465000011000: system.cpu: Running Insts:      4930000000
2470000011000: system.cpu: Running Insts:      4940000000
2475000011000: system.cpu: Running Insts:      4950000000
2480000011000: system.cpu: Running Insts:      4960000000
2485000011000: system.cpu: Running Insts:      4970000000
2490000011000: system.cpu: Running Insts:      4980000000
2495000011000: system.cpu: Running Insts:      4990000000
2500000011000: system.cpu: Running Insts:      5000000000
2505000011000: system.cpu: Running Insts:      5010000000
2510000011000: system.cpu: Running Insts:      5020000000
2515000011000: system.cpu: Running Insts:      5030000000
2520000011000: system.cpu: Running Insts:      5040000000
2525000011000: system.cpu: Running Insts:      5050000000
2530000011000: system.cpu: Running Insts:      5060000000
2535000011000: system.cpu: Running Insts:      5070000000
2540000011000: system.cpu: Running Insts:      5080000000
2545000011000: system.cpu: Running Insts:      5090000000
2550000011000: system.cpu: Running Insts:      5100000000
2555000011000: system.cpu: Running Insts:      5110000000
2560000011000: system.cpu: Running Insts:      5120000000
2565000011000: system.cpu: Running Insts:      5130000000
2570000011000: system.cpu: Running Insts:      5140000000
2575000011000: system.cpu: Running Insts:      5150000000
2580000011000: system.cpu: Running Insts:      5160000000
2585000011000: system.cpu: Running Insts:      5170000000
2590000011000: system.cpu: Running Insts:      5180000000
2595000011000: system.cpu: Running Insts:      5190000000
2600000011000: system.cpu: Running Insts:      5200000000
2605000011000: system.cpu: Running Insts:      5210000000
2610000011000: system.cpu: Running Insts:      5220000000
2615000011000: system.cpu: Running Insts:      5230000000
2620000011000: system.cpu: Running Insts:      5240000000
2625000011000: system.cpu: Running Insts:      5250000000
2630000011000: system.cpu: Running Insts:      5260000000
2635000011000: system.cpu: Running Insts:      5270000000
2640000011000: system.cpu: Running Insts:      5280000000
2645000011000: system.cpu: Running Insts:      5290000000
2650000011000: system.cpu: Running Insts:      5300000000
2655000011000: system.cpu: Running Insts:      5310000000
2660000011000: system.cpu: Running Insts:      5320000000
2665000011000: system.cpu: Running Insts:      5330000000
2670000011000: system.cpu: Running Insts:      5340000000
2675000011000: system.cpu: Running Insts:      5350000000
2680000011000: system.cpu: Running Insts:      5360000000
2685000011000: system.cpu: Running Insts:      5370000000
2690000011000: system.cpu: Running Insts:      5380000000
2695000011000: system.cpu: Running Insts:      5390000000
2700000011000: system.cpu: Running Insts:      5400000000
2705000011000: system.cpu: Running Insts:      5410000000
2710000011000: system.cpu: Running Insts:      5420000000
2715000011000: system.cpu: Running Insts:      5430000000
2720000011000: system.cpu: Running Insts:      5440000000
2725000011000: system.cpu: Running Insts:      5450000000
2730000011000: system.cpu: Running Insts:      5460000000
2735000011000: system.cpu: Running Insts:      5470000000
2740000011000: system.cpu: Running Insts:      5480000000
2745000011000: system.cpu: Running Insts:      5490000000
2750000011000: system.cpu: Running Insts:      5500000000
2755000011000: system.cpu: Running Insts:      5510000000
2760000011000: system.cpu: Running Insts:      5520000000
2765000011000: system.cpu: Running Insts:      5530000000
2770000011000: system.cpu: Running Insts:      5540000000
2775000011000: system.cpu: Running Insts:      5550000000
2780000011000: system.cpu: Running Insts:      5560000000
2785000011000: system.cpu: Running Insts:      5570000000
2790000011000: system.cpu: Running Insts:      5580000000
2795000011000: system.cpu: Running Insts:      5590000000
2800000011000: system.cpu: Running Insts:      5600000000
2805000011000: system.cpu: Running Insts:      5610000000
2810000011000: system.cpu: Running Insts:      5620000000
2815000011000: system.cpu: Running Insts:      5630000000
2820000011000: system.cpu: Running Insts:      5640000000
2825000011000: system.cpu: Running Insts:      5650000000
2830000011000: system.cpu: Running Insts:      5660000000
2835000011000: system.cpu: Running Insts:      5670000000
2840000011000: system.cpu: Running Insts:      5680000000
2845000011000: system.cpu: Running Insts:      5690000000
2850000011000: system.cpu: Running Insts:      5700000000
2855000011000: system.cpu: Running Insts:      5710000000
2860000011000: system.cpu: Running Insts:      5720000000
2865000011000: system.cpu: Running Insts:      5730000000
2870000011000: system.cpu: Running Insts:      5740000000
2875000011000: system.cpu: Running Insts:      5750000000
2880000011000: system.cpu: Running Insts:      5760000000
2885000011000: system.cpu: Running Insts:      5770000000
2890000011000: system.cpu: Running Insts:      5780000000
2895000011000: system.cpu: Running Insts:      5790000000
2900000011000: system.cpu: Running Insts:      5800000000
2905000011000: system.cpu: Running Insts:      5810000000
2910000011000: system.cpu: Running Insts:      5820000000
2915000011000: system.cpu: Running Insts:      5830000000
2920000011000: system.cpu: Running Insts:      5840000000
2925000011000: system.cpu: Running Insts:      5850000000
2930000011000: system.cpu: Running Insts:      5860000000
2935000011000: system.cpu: Running Insts:      5870000000
2940000011000: system.cpu: Running Insts:      5880000000
2945000011000: system.cpu: Running Insts:      5890000000
2950000011000: system.cpu: Running Insts:      5900000000
2955000011000: system.cpu: Running Insts:      5910000000
2960000011000: system.cpu: Running Insts:      5920000000
2965000011000: system.cpu: Running Insts:      5930000000
2970000011000: system.cpu: Running Insts:      5940000000
2975000011000: system.cpu: Running Insts:      5950000000
2980000011000: system.cpu: Running Insts:      5960000000
2985000011000: system.cpu: Running Insts:      5970000000
2990000011000: system.cpu: Running Insts:      5980000000
2995000011000: system.cpu: Running Insts:      5990000000
3000000011000: system.cpu: Running Insts:      6000000000
3005000011000: system.cpu: Running Insts:      6010000000
3010000011000: system.cpu: Running Insts:      6020000000
3015000011000: system.cpu: Running Insts:      6030000000
3020000011000: system.cpu: Running Insts:      6040000000
3025000011000: system.cpu: Running Insts:      6050000000
3030000011000: system.cpu: Running Insts:      6060000000
3035000011000: system.cpu: Running Insts:      6070000000
3040000011000: system.cpu: Running Insts:      6080000000
3045000011000: system.cpu: Running Insts:      6090000000
3050000011000: system.cpu: Running Insts:      6100000000
3055000011000: system.cpu: Running Insts:      6110000000
3060000011000: system.cpu: Running Insts:      6120000000
3065000011000: system.cpu: Running Insts:      6130000000
3070000011000: system.cpu: Running Insts:      6140000000
3075000011000: system.cpu: Running Insts:      6150000000
3080000011000: system.cpu: Running Insts:      6160000000
3085000011000: system.cpu: Running Insts:      6170000000
3090000011000: system.cpu: Running Insts:      6180000000
3095000011000: system.cpu: Running Insts:      6190000000
3100000011000: system.cpu: Running Insts:      6200000000
3105000011000: system.cpu: Running Insts:      6210000000
3110000011000: system.cpu: Running Insts:      6220000000
3115000011000: system.cpu: Running Insts:      6230000000
3120000011000: system.cpu: Running Insts:      6240000000
3125000011000: system.cpu: Running Insts:      6250000000
3130000011000: system.cpu: Running Insts:      6260000000
3135000011000: system.cpu: Running Insts:      6270000000
3140000011000: system.cpu: Running Insts:      6280000000
3145000011000: system.cpu: Running Insts:      6290000000
3150000011000: system.cpu: Running Insts:      6300000000
3155000011000: system.cpu: Running Insts:      6310000000
3160000011000: system.cpu: Running Insts:      6320000000
3165000011000: system.cpu: Running Insts:      6330000000
3170000011000: system.cpu: Running Insts:      6340000000
3175000011000: system.cpu: Running Insts:      6350000000
3180000011000: system.cpu: Running Insts:      6360000000
3185000011000: system.cpu: Running Insts:      6370000000
3190000011000: system.cpu: Running Insts:      6380000000
3195000011000: system.cpu: Running Insts:      6390000000
3200000011000: system.cpu: Running Insts:      6400000000
3205000011000: system.cpu: Running Insts:      6410000000
3210000011000: system.cpu: Running Insts:      6420000000
3215000011000: system.cpu: Running Insts:      6430000000
3220000011000: system.cpu: Running Insts:      6440000000
3225000011000: system.cpu: Running Insts:      6450000000
3230000011000: system.cpu: Running Insts:      6460000000
3235000011000: system.cpu: Running Insts:      6470000000
3240000011000: system.cpu: Running Insts:      6480000000
3245000011000: system.cpu: Running Insts:      6490000000
3250000011000: system.cpu: Running Insts:      6500000000
3255000011000: system.cpu: Running Insts:      6510000000
3260000011000: system.cpu: Running Insts:      6520000000
3265000011000: system.cpu: Running Insts:      6530000000
3270000011000: system.cpu: Running Insts:      6540000000
3275000011000: system.cpu: Running Insts:      6550000000
3280000011000: system.cpu: Running Insts:      6560000000
3285000011000: system.cpu: Running Insts:      6570000000
3290000011000: system.cpu: Running Insts:      6580000000
3295000011000: system.cpu: Running Insts:      6590000000
3300000011000: system.cpu: Running Insts:      6600000000
3305000011000: system.cpu: Running Insts:      6610000000
3310000011000: system.cpu: Running Insts:      6620000000
3315000011000: system.cpu: Running Insts:      6630000000
3320000011000: system.cpu: Running Insts:      6640000000
3325000011000: system.cpu: Running Insts:      6650000000
3330000011000: system.cpu: Running Insts:      6660000000
3335000011000: system.cpu: Running Insts:      6670000000
3340000011000: system.cpu: Running Insts:      6680000000
3345000011000: system.cpu: Running Insts:      6690000000
3350000011000: system.cpu: Running Insts:      6700000000
3355000011000: system.cpu: Running Insts:      6710000000
3360000011000: system.cpu: Running Insts:      6720000000
3365000011000: system.cpu: Running Insts:      6730000000
3370000011000: system.cpu: Running Insts:      6740000000
3375000011000: system.cpu: Running Insts:      6750000000
3380000011000: system.cpu: Running Insts:      6760000000
3385000011000: system.cpu: Running Insts:      6770000000
3390000011000: system.cpu: Running Insts:      6780000000
3395000011000: system.cpu: Running Insts:      6790000000
3400000011000: system.cpu: Running Insts:      6800000000
3405000011000: system.cpu: Running Insts:      6810000000
3410000011000: system.cpu: Running Insts:      6820000000
3415000011000: system.cpu: Running Insts:      6830000000
3420000011000: system.cpu: Running Insts:      6840000000
3425000011000: system.cpu: Running Insts:      6850000000
3430000011000: system.cpu: Running Insts:      6860000000
3435000011000: system.cpu: Running Insts:      6870000000
3440000011000: system.cpu: Running Insts:      6880000000
3445000011000: system.cpu: Running Insts:      6890000000
3450000011000: system.cpu: Running Insts:      6900000000
3455000011000: system.cpu: Running Insts:      6910000000
3460000011000: system.cpu: Running Insts:      6920000000
3465000011000: system.cpu: Running Insts:      6930000000
3470000011000: system.cpu: Running Insts:      6940000000
3475000011000: system.cpu: Running Insts:      6950000000
3480000011000: system.cpu: Running Insts:      6960000000
3485000011000: system.cpu: Running Insts:      6970000000
3490000011000: system.cpu: Running Insts:      6980000000
3495000011000: system.cpu: Running Insts:      6990000000
3500000011000: system.cpu: Running Insts:      7000000000
3505000011000: system.cpu: Running Insts:      7010000000
3510000011000: system.cpu: Running Insts:      7020000000
3515000011000: system.cpu: Running Insts:      7030000000
3520000011000: system.cpu: Running Insts:      7040000000
3525000011000: system.cpu: Running Insts:      7050000000
3530000011000: system.cpu: Running Insts:      7060000000
3535000011000: system.cpu: Running Insts:      7070000000
3540000011000: system.cpu: Running Insts:      7080000000
3545000011000: system.cpu: Running Insts:      7090000000
3550000011000: system.cpu: Running Insts:      7100000000
3555000011000: system.cpu: Running Insts:      7110000000
3560000011000: system.cpu: Running Insts:      7120000000
3565000011000: system.cpu: Running Insts:      7130000000
3570000011000: system.cpu: Running Insts:      7140000000
3575000011000: system.cpu: Running Insts:      7150000000
3580000011000: system.cpu: Running Insts:      7160000000
3585000011000: system.cpu: Running Insts:      7170000000
3590000011000: system.cpu: Running Insts:      7180000000
3595000011000: system.cpu: Running Insts:      7190000000
3600000011000: system.cpu: Running Insts:      7200000000
3605000011000: system.cpu: Running Insts:      7210000000
3610000011000: system.cpu: Running Insts:      7220000000
3615000011000: system.cpu: Running Insts:      7230000000
3620000011000: system.cpu: Running Insts:      7240000000
3625000011000: system.cpu: Running Insts:      7250000000
3630000011000: system.cpu: Running Insts:      7260000000
3635000011000: system.cpu: Running Insts:      7270000000
3640000011000: system.cpu: Running Insts:      7280000000
3645000011000: system.cpu: Running Insts:      7290000000
3650000011000: system.cpu: Running Insts:      7300000000
3655000011000: system.cpu: Running Insts:      7310000000
3660000011000: system.cpu: Running Insts:      7320000000
3665000011000: system.cpu: Running Insts:      7330000000
3670000011000: system.cpu: Running Insts:      7340000000
3675000011000: system.cpu: Running Insts:      7350000000
3680000011000: system.cpu: Running Insts:      7360000000
3685000011000: system.cpu: Running Insts:      7370000000
3690000011000: system.cpu: Running Insts:      7380000000
3695000011000: system.cpu: Running Insts:      7390000000
3700000011000: system.cpu: Running Insts:      7400000000
3705000011000: system.cpu: Running Insts:      7410000000
3710000011000: system.cpu: Running Insts:      7420000000
3715000011000: system.cpu: Running Insts:      7430000000
3720000011000: system.cpu: Running Insts:      7440000000
3725000011000: system.cpu: Running Insts:      7450000000
3730000011000: system.cpu: Running Insts:      7460000000
3735000011000: system.cpu: Running Insts:      7470000000
3740000011000: system.cpu: Running Insts:      7480000000
3745000011000: system.cpu: Running Insts:      7490000000
3750000011000: system.cpu: Running Insts:      7500000000
3755000011000: system.cpu: Running Insts:      7510000000
3760000011000: system.cpu: Running Insts:      7520000000
3765000011000: system.cpu: Running Insts:      7530000000
3770000011000: system.cpu: Running Insts:      7540000000
3775000011000: system.cpu: Running Insts:      7550000000
3780000011000: system.cpu: Running Insts:      7560000000
3785000011000: system.cpu: Running Insts:      7570000000
3790000011000: system.cpu: Running Insts:      7580000000
3795000011000: system.cpu: Running Insts:      7590000000
3800000011000: system.cpu: Running Insts:      7600000000
3805000011000: system.cpu: Running Insts:      7610000000
3810000011000: system.cpu: Running Insts:      7620000000
3815000011000: system.cpu: Running Insts:      7630000000
3820000011000: system.cpu: Running Insts:      7640000000
3825000011000: system.cpu: Running Insts:      7650000000
3830000011000: system.cpu: Running Insts:      7660000000
3835000011000: system.cpu: Running Insts:      7670000000
3840000011000: system.cpu: Running Insts:      7680000000
3845000011000: system.cpu: Running Insts:      7690000000
3850000011000: system.cpu: Running Insts:      7700000000
3855000011000: system.cpu: Running Insts:      7710000000
3860000011000: system.cpu: Running Insts:      7720000000
3865000011000: system.cpu: Running Insts:      7730000000
3870000011000: system.cpu: Running Insts:      7740000000
3875000011000: system.cpu: Running Insts:      7750000000
3880000011000: system.cpu: Running Insts:      7760000000
3885000011000: system.cpu: Running Insts:      7770000000
3890000011000: system.cpu: Running Insts:      7780000000
3895000011000: system.cpu: Running Insts:      7790000000
3900000011000: system.cpu: Running Insts:      7800000000
3905000011000: system.cpu: Running Insts:      7810000000
3910000011000: system.cpu: Running Insts:      7820000000
3915000011000: system.cpu: Running Insts:      7830000000
3920000011000: system.cpu: Running Insts:      7840000000
3925000011000: system.cpu: Running Insts:      7850000000
3930000011000: system.cpu: Running Insts:      7860000000
3935000011000: system.cpu: Running Insts:      7870000000
3940000011000: system.cpu: Running Insts:      7880000000
3945000011000: system.cpu: Running Insts:      7890000000
3950000011000: system.cpu: Running Insts:      7900000000
3955000011000: system.cpu: Running Insts:      7910000000
3960000011000: system.cpu: Running Insts:      7920000000
3965000011000: system.cpu: Running Insts:      7930000000
3970000011000: system.cpu: Running Insts:      7940000000
3975000011000: system.cpu: Running Insts:      7950000000
3980000011000: system.cpu: Running Insts:      7960000000
3985000011000: system.cpu: Running Insts:      7970000000
3990000011000: system.cpu: Running Insts:      7980000000
3995000011000: system.cpu: Running Insts:      7990000000
4000000011000: system.cpu: Running Insts:      8000000000
4005000011000: system.cpu: Running Insts:      8010000000
4010000011000: system.cpu: Running Insts:      8020000000
4015000011000: system.cpu: Running Insts:      8030000000
4020000011000: system.cpu: Running Insts:      8040000000
4025000011000: system.cpu: Running Insts:      8050000000
4030000011000: system.cpu: Running Insts:      8060000000
4035000011000: system.cpu: Running Insts:      8070000000
4040000011000: system.cpu: Running Insts:      8080000000
4045000011000: system.cpu: Running Insts:      8090000000
4050000011000: system.cpu: Running Insts:      8100000000
4055000011000: system.cpu: Running Insts:      8110000000
4060000011000: system.cpu: Running Insts:      8120000000
4065000011000: system.cpu: Running Insts:      8130000000
4070000011000: system.cpu: Running Insts:      8140000000
4075000011000: system.cpu: Running Insts:      8150000000
4080000011000: system.cpu: Running Insts:      8160000000
4085000011000: system.cpu: Running Insts:      8170000000
4090000011000: system.cpu: Running Insts:      8180000000
4095000011000: system.cpu: Running Insts:      8190000000
4100000011000: system.cpu: Running Insts:      8200000000
4105000011000: system.cpu: Running Insts:      8210000000
4110000011000: system.cpu: Running Insts:      8220000000
4115000011000: system.cpu: Running Insts:      8230000000
4120000011000: system.cpu: Running Insts:      8240000000
4125000011000: system.cpu: Running Insts:      8250000000
4130000011000: system.cpu: Running Insts:      8260000000
4135000011000: system.cpu: Running Insts:      8270000000
4140000011000: system.cpu: Running Insts:      8280000000
4145000011000: system.cpu: Running Insts:      8290000000
4150000011000: system.cpu: Running Insts:      8300000000
4155000011000: system.cpu: Running Insts:      8310000000
4160000011000: system.cpu: Running Insts:      8320000000
4165000011000: system.cpu: Running Insts:      8330000000
4170000011000: system.cpu: Running Insts:      8340000000
4175000011000: system.cpu: Running Insts:      8350000000
4180000011000: system.cpu: Running Insts:      8360000000
4185000011000: system.cpu: Running Insts:      8370000000
4190000011000: system.cpu: Running Insts:      8380000000
4195000011000: system.cpu: Running Insts:      8390000000
4200000011000: system.cpu: Running Insts:      8400000000
4205000011000: system.cpu: Running Insts:      8410000000
4210000011000: system.cpu: Running Insts:      8420000000
4215000011000: system.cpu: Running Insts:      8430000000
4220000011000: system.cpu: Running Insts:      8440000000
4225000011000: system.cpu: Running Insts:      8450000000
4230000011000: system.cpu: Running Insts:      8460000000
4235000011000: system.cpu: Running Insts:      8470000000
4240000011000: system.cpu: Running Insts:      8480000000
4245000011000: system.cpu: Running Insts:      8490000000
4250000011000: system.cpu: Running Insts:      8500000000
4255000011000: system.cpu: Running Insts:      8510000000
4260000011000: system.cpu: Running Insts:      8520000000
4265000011000: system.cpu: Running Insts:      8530000000
4270000011000: system.cpu: Running Insts:      8540000000
4275000011000: system.cpu: Running Insts:      8550000000
4280000011000: system.cpu: Running Insts:      8560000000
4285000011000: system.cpu: Running Insts:      8570000000
4290000011000: system.cpu: Running Insts:      8580000000
4295000011000: system.cpu: Running Insts:      8590000000
4300000011000: system.cpu: Running Insts:      8600000000
4305000011000: system.cpu: Running Insts:      8610000000
4310000011000: system.cpu: Running Insts:      8620000000
4315000011000: system.cpu: Running Insts:      8630000000
4320000011000: system.cpu: Running Insts:      8640000000
4325000011000: system.cpu: Running Insts:      8650000000
4330000011000: system.cpu: Running Insts:      8660000000
4335000011000: system.cpu: Running Insts:      8670000000
4340000011000: system.cpu: Running Insts:      8680000000
4345000011000: system.cpu: Running Insts:      8690000000
4350000011000: system.cpu: Running Insts:      8700000000
4355000011000: system.cpu: Running Insts:      8710000000
4360000011000: system.cpu: Running Insts:      8720000000
4365000011000: system.cpu: Running Insts:      8730000000
4370000011000: system.cpu: Running Insts:      8740000000
4375000011000: system.cpu: Running Insts:      8750000000
4380000011000: system.cpu: Running Insts:      8760000000
4385000011000: system.cpu: Running Insts:      8770000000
4390000011000: system.cpu: Running Insts:      8780000000
4395000011000: system.cpu: Running Insts:      8790000000
4400000011000: system.cpu: Running Insts:      8800000000
4405000011000: system.cpu: Running Insts:      8810000000
4410000011000: system.cpu: Running Insts:      8820000000
4415000011000: system.cpu: Running Insts:      8830000000
4420000011000: system.cpu: Running Insts:      8840000000
4425000011000: system.cpu: Running Insts:      8850000000
4430000011000: system.cpu: Running Insts:      8860000000
4435000011000: system.cpu: Running Insts:      8870000000
4440000011000: system.cpu: Running Insts:      8880000000
4445000011000: system.cpu: Running Insts:      8890000000
4450000011000: system.cpu: Running Insts:      8900000000
4455000011000: system.cpu: Running Insts:      8910000000
4460000011000: system.cpu: Running Insts:      8920000000
4465000011000: system.cpu: Running Insts:      8930000000
4470000011000: system.cpu: Running Insts:      8940000000
4475000011000: system.cpu: Running Insts:      8950000000
4480000011000: system.cpu: Running Insts:      8960000000
4485000011000: system.cpu: Running Insts:      8970000000
4490000011000: system.cpu: Running Insts:      8980000000
4495000011000: system.cpu: Running Insts:      8990000000
4500000011000: system.cpu: Running Insts:      9000000000
4505000011000: system.cpu: Running Insts:      9010000000
4510000011000: system.cpu: Running Insts:      9020000000
4515000011000: system.cpu: Running Insts:      9030000000
4520000011000: system.cpu: Running Insts:      9040000000
4525000011000: system.cpu: Running Insts:      9050000000
4530000011000: system.cpu: Running Insts:      9060000000
4535000011000: system.cpu: Running Insts:      9070000000
4540000011000: system.cpu: Running Insts:      9080000000
4545000011000: system.cpu: Running Insts:      9090000000
4550000011000: system.cpu: Running Insts:      9100000000
4555000011000: system.cpu: Running Insts:      9110000000
4560000011000: system.cpu: Running Insts:      9120000000
4565000011000: system.cpu: Running Insts:      9130000000
4570000011000: system.cpu: Running Insts:      9140000000
4575000011000: system.cpu: Running Insts:      9150000000
4580000011000: system.cpu: Running Insts:      9160000000
4585000011000: system.cpu: Running Insts:      9170000000
4590000011000: system.cpu: Running Insts:      9180000000
4595000011000: system.cpu: Running Insts:      9190000000
4600000011000: system.cpu: Running Insts:      9200000000
4605000011000: system.cpu: Running Insts:      9210000000
4610000011000: system.cpu: Running Insts:      9220000000
4615000011000: system.cpu: Running Insts:      9230000000
4620000011000: system.cpu: Running Insts:      9240000000
4625000011000: system.cpu: Running Insts:      9250000000
4630000011000: system.cpu: Running Insts:      9260000000
4635000011000: system.cpu: Running Insts:      9270000000
4640000011000: system.cpu: Running Insts:      9280000000
4645000011000: system.cpu: Running Insts:      9290000000
4650000011000: system.cpu: Running Insts:      9300000000
4655000011000: system.cpu: Running Insts:      9310000000
4660000011000: system.cpu: Running Insts:      9320000000
4665000011000: system.cpu: Running Insts:      9330000000
4670000011000: system.cpu: Running Insts:      9340000000
4675000011000: system.cpu: Running Insts:      9350000000
4680000011000: system.cpu: Running Insts:      9360000000
4685000011000: system.cpu: Running Insts:      9370000000
4690000011000: system.cpu: Running Insts:      9380000000
4695000011000: system.cpu: Running Insts:      9390000000
4700000011000: system.cpu: Running Insts:      9400000000
4705000011000: system.cpu: Running Insts:      9410000000
4710000011000: system.cpu: Running Insts:      9420000000
4715000011000: system.cpu: Running Insts:      9430000000
4720000011000: system.cpu: Running Insts:      9440000000
4725000011000: system.cpu: Running Insts:      9450000000
4730000011000: system.cpu: Running Insts:      9460000000
4735000011000: system.cpu: Running Insts:      9470000000
4740000011000: system.cpu: Running Insts:      9480000000
4745000011000: system.cpu: Running Insts:      9490000000
4750000011000: system.cpu: Running Insts:      9500000000
4755000011000: system.cpu: Running Insts:      9510000000
4760000011000: system.cpu: Running Insts:      9520000000
4765000011000: system.cpu: Running Insts:      9530000000
4770000011000: system.cpu: Running Insts:      9540000000
4775000011000: system.cpu: Running Insts:      9550000000
4780000011000: system.cpu: Running Insts:      9560000000
4785000011000: system.cpu: Running Insts:      9570000000
4790000011000: system.cpu: Running Insts:      9580000000
4795000011000: system.cpu: Running Insts:      9590000000
4800000011000: system.cpu: Running Insts:      9600000000
4805000011000: system.cpu: Running Insts:      9610000000
4810000011000: system.cpu: Running Insts:      9620000000
4815000011000: system.cpu: Running Insts:      9630000000
4820000011000: system.cpu: Running Insts:      9640000000
4825000011000: system.cpu: Running Insts:      9650000000
4830000011000: system.cpu: Running Insts:      9660000000
4835000011000: system.cpu: Running Insts:      9670000000
4840000011000: system.cpu: Running Insts:      9680000000
4845000011000: system.cpu: Running Insts:      9690000000
4850000011000: system.cpu: Running Insts:      9700000000
4855000011000: system.cpu: Running Insts:      9710000000
4860000011000: system.cpu: Running Insts:      9720000000
4865000011000: system.cpu: Running Insts:      9730000000
4870000011000: system.cpu: Running Insts:      9740000000
4875000011000: system.cpu: Running Insts:      9750000000
4880000011000: system.cpu: Running Insts:      9760000000
4885000011000: system.cpu: Running Insts:      9770000000
4890000011000: system.cpu: Running Insts:      9780000000
4895000011000: system.cpu: Running Insts:      9790000000
4900000011000: system.cpu: Running Insts:      9800000000
4905000011000: system.cpu: Running Insts:      9810000000
4910000011000: system.cpu: Running Insts:      9820000000
4915000011000: system.cpu: Running Insts:      9830000000
4920000011000: system.cpu: Running Insts:      9840000000
4925000011000: system.cpu: Running Insts:      9850000000
4930000011000: system.cpu: Running Insts:      9860000000
4935000011000: system.cpu: Running Insts:      9870000000
4940000011000: system.cpu: Running Insts:      9880000000
4945000011000: system.cpu: Running Insts:      9890000000
4950000011000: system.cpu: Running Insts:      9900000000
4955000011000: system.cpu: Running Insts:      9910000000
4960000011000: system.cpu: Running Insts:      9920000000
4965000011000: system.cpu: Running Insts:      9930000000
4970000011000: system.cpu: Running Insts:      9940000000
4975000011000: system.cpu: Running Insts:      9950000000
4980000011000: system.cpu: Running Insts:      9960000000
4985000011000: system.cpu: Running Insts:      9970000000
4990000011000: system.cpu: Running Insts:      9980000000
4995000011000: system.cpu: Running Insts:      9990000000
5000000011000: system.cpu: Running Insts:     10000000000
5005000011000: system.cpu: Running Insts:     10010000000
5010000011000: system.cpu: Running Insts:     10020000000
5015000011000: system.cpu: Running Insts:     10030000000
5020000011000: system.cpu: Running Insts:     10040000000
5025000011000: system.cpu: Running Insts:     10050000000
5030000011000: system.cpu: Running Insts:     10060000000
5035000011000: system.cpu: Running Insts:     10070000000
5040000011000: system.cpu: Running Insts:     10080000000
5045000011000: system.cpu: Running Insts:     10090000000
5050000011000: system.cpu: Running Insts:     10100000000
5055000011000: system.cpu: Running Insts:     10110000000
5060000011000: system.cpu: Running Insts:     10120000000
5065000011000: system.cpu: Running Insts:     10130000000
5070000011000: system.cpu: Running Insts:     10140000000
5075000011000: system.cpu: Running Insts:     10150000000
5080000011000: system.cpu: Running Insts:     10160000000
5085000011000: system.cpu: Running Insts:     10170000000
5090000011000: system.cpu: Running Insts:     10180000000
5095000011000: system.cpu: Running Insts:     10190000000
5100000011000: system.cpu: Running Insts:     10200000000
5105000011000: system.cpu: Running Insts:     10210000000
5110000011000: system.cpu: Running Insts:     10220000000
5115000011000: system.cpu: Running Insts:     10230000000
5120000011000: system.cpu: Running Insts:     10240000000
5125000011000: system.cpu: Running Insts:     10250000000
5130000011000: system.cpu: Running Insts:     10260000000
5135000011000: system.cpu: Running Insts:     10270000000
5140000011000: system.cpu: Running Insts:     10280000000
5145000011000: system.cpu: Running Insts:     10290000000
5150000011000: system.cpu: Running Insts:     10300000000
5155000011000: system.cpu: Running Insts:     10310000000
5160000011000: system.cpu: Running Insts:     10320000000
5165000011000: system.cpu: Running Insts:     10330000000
5170000011000: system.cpu: Running Insts:     10340000000
5175000011000: system.cpu: Running Insts:     10350000000
5180000011000: system.cpu: Running Insts:     10360000000
5185000011000: system.cpu: Running Insts:     10370000000
5190000011000: system.cpu: Running Insts:     10380000000
5195000011000: system.cpu: Running Insts:     10390000000
5200000011000: system.cpu: Running Insts:     10400000000
5205000011000: system.cpu: Running Insts:     10410000000
5210000011000: system.cpu: Running Insts:     10420000000
5215000011000: system.cpu: Running Insts:     10430000000
5220000011000: system.cpu: Running Insts:     10440000000
5225000011000: system.cpu: Running Insts:     10450000000
5230000011000: system.cpu: Running Insts:     10460000000
5235000011000: system.cpu: Running Insts:     10470000000
5240000011000: system.cpu: Running Insts:     10480000000
5245000011000: system.cpu: Running Insts:     10490000000
5250000011000: system.cpu: Running Insts:     10500000000
5255000011000: system.cpu: Running Insts:     10510000000
5260000011000: system.cpu: Running Insts:     10520000000
5265000011000: system.cpu: Running Insts:     10530000000
5270000011000: system.cpu: Running Insts:     10540000000
5275000011000: system.cpu: Running Insts:     10550000000
5280000011000: system.cpu: Running Insts:     10560000000
5285000011000: system.cpu: Running Insts:     10570000000
5290000011000: system.cpu: Running Insts:     10580000000
5295000011000: system.cpu: Running Insts:     10590000000
5300000011000: system.cpu: Running Insts:     10600000000
5305000011000: system.cpu: Running Insts:     10610000000
5310000011000: system.cpu: Running Insts:     10620000000
5315000011000: system.cpu: Running Insts:     10630000000
5320000011000: system.cpu: Running Insts:     10640000000
5325000011000: system.cpu: Running Insts:     10650000000
5330000011000: system.cpu: Running Insts:     10660000000
5335000011000: system.cpu: Running Insts:     10670000000
5340000011000: system.cpu: Running Insts:     10680000000
5345000011000: system.cpu: Running Insts:     10690000000
5350000011000: system.cpu: Running Insts:     10700000000
5355000011000: system.cpu: Running Insts:     10710000000
5360000011000: system.cpu: Running Insts:     10720000000
5365000011000: system.cpu: Running Insts:     10730000000
5370000011000: system.cpu: Running Insts:     10740000000
5375000011000: system.cpu: Running Insts:     10750000000
5380000011000: system.cpu: Running Insts:     10760000000
5385000011000: system.cpu: Running Insts:     10770000000
5390000011000: system.cpu: Running Insts:     10780000000
5395000011000: system.cpu: Running Insts:     10790000000
5400000011000: system.cpu: Running Insts:     10800000000
5405000011000: system.cpu: Running Insts:     10810000000
5410000011000: system.cpu: Running Insts:     10820000000
5415000011000: system.cpu: Running Insts:     10830000000
5420000011000: system.cpu: Running Insts:     10840000000
5425000011000: system.cpu: Running Insts:     10850000000
5430000011000: system.cpu: Running Insts:     10860000000
5435000011000: system.cpu: Running Insts:     10870000000
5440000011000: system.cpu: Running Insts:     10880000000
5445000011000: system.cpu: Running Insts:     10890000000
5450000011000: system.cpu: Running Insts:     10900000000
5455000011000: system.cpu: Running Insts:     10910000000
5460000011000: system.cpu: Running Insts:     10920000000
5465000011000: system.cpu: Running Insts:     10930000000
5470000011000: system.cpu: Running Insts:     10940000000
5475000011000: system.cpu: Running Insts:     10950000000
5480000011000: system.cpu: Running Insts:     10960000000
5485000011000: system.cpu: Running Insts:     10970000000
5490000011000: system.cpu: Running Insts:     10980000000
5495000011000: system.cpu: Running Insts:     10990000000
5500000011000: system.cpu: Running Insts:     11000000000
5505000011000: system.cpu: Running Insts:     11010000000
5510000011000: system.cpu: Running Insts:     11020000000
5515000011000: system.cpu: Running Insts:     11030000000
5520000011000: system.cpu: Running Insts:     11040000000
5525000011000: system.cpu: Running Insts:     11050000000
5530000011000: system.cpu: Running Insts:     11060000000
5535000011000: system.cpu: Running Insts:     11070000000
5540000011000: system.cpu: Running Insts:     11080000000
5545000011000: system.cpu: Running Insts:     11090000000
5550000011000: system.cpu: Running Insts:     11100000000
5555000011000: system.cpu: Running Insts:     11110000000
5560000011000: system.cpu: Running Insts:     11120000000
5565000011000: system.cpu: Running Insts:     11130000000
5570000011000: system.cpu: Running Insts:     11140000000
5575000011000: system.cpu: Running Insts:     11150000000
5580000011000: system.cpu: Running Insts:     11160000000
5585000011000: system.cpu: Running Insts:     11170000000
5590000011000: system.cpu: Running Insts:     11180000000
5595000011000: system.cpu: Running Insts:     11190000000
5600000011000: system.cpu: Running Insts:     11200000000
5605000011000: system.cpu: Running Insts:     11210000000
5610000011000: system.cpu: Running Insts:     11220000000
5615000011000: system.cpu: Running Insts:     11230000000
5620000011000: system.cpu: Running Insts:     11240000000
5625000011000: system.cpu: Running Insts:     11250000000
5630000011000: system.cpu: Running Insts:     11260000000
5635000011000: system.cpu: Running Insts:     11270000000
5640000011000: system.cpu: Running Insts:     11280000000
5645000011000: system.cpu: Running Insts:     11290000000
5650000011000: system.cpu: Running Insts:     11300000000
5655000011000: system.cpu: Running Insts:     11310000000
5660000011000: system.cpu: Running Insts:     11320000000
5665000011000: system.cpu: Running Insts:     11330000000
5670000011000: system.cpu: Running Insts:     11340000000
5675000011000: system.cpu: Running Insts:     11350000000
5680000011000: system.cpu: Running Insts:     11360000000
5685000011000: system.cpu: Running Insts:     11370000000
5690000011000: system.cpu: Running Insts:     11380000000
5695000011000: system.cpu: Running Insts:     11390000000
5700000011000: system.cpu: Running Insts:     11400000000
5705000011000: system.cpu: Running Insts:     11410000000
5710000011000: system.cpu: Running Insts:     11420000000
5715000011000: system.cpu: Running Insts:     11430000000
5720000011000: system.cpu: Running Insts:     11440000000
5725000011000: system.cpu: Running Insts:     11450000000
5730000011000: system.cpu: Running Insts:     11460000000
5735000011000: system.cpu: Running Insts:     11470000000
5740000011000: system.cpu: Running Insts:     11480000000
5745000011000: system.cpu: Running Insts:     11490000000
5750000011000: system.cpu: Running Insts:     11500000000
5755000011000: system.cpu: Running Insts:     11510000000
5760000011000: system.cpu: Running Insts:     11520000000
5765000011000: system.cpu: Running Insts:     11530000000
5770000011000: system.cpu: Running Insts:     11540000000
5775000011000: system.cpu: Running Insts:     11550000000
5780000011000: system.cpu: Running Insts:     11560000000
5785000011000: system.cpu: Running Insts:     11570000000
5790000011000: system.cpu: Running Insts:     11580000000
5795000011000: system.cpu: Running Insts:     11590000000
5800000011000: system.cpu: Running Insts:     11600000000
5805000011000: system.cpu: Running Insts:     11610000000
5810000011000: system.cpu: Running Insts:     11620000000
5815000011000: system.cpu: Running Insts:     11630000000
5820000011000: system.cpu: Running Insts:     11640000000
5825000011000: system.cpu: Running Insts:     11650000000
5830000011000: system.cpu: Running Insts:     11660000000
5835000011000: system.cpu: Running Insts:     11670000000
5840000011000: system.cpu: Running Insts:     11680000000
5845000011000: system.cpu: Running Insts:     11690000000
5850000011000: system.cpu: Running Insts:     11700000000
5855000011000: system.cpu: Running Insts:     11710000000
5860000011000: system.cpu: Running Insts:     11720000000
5865000011000: system.cpu: Running Insts:     11730000000
5870000011000: system.cpu: Running Insts:     11740000000
5875000011000: system.cpu: Running Insts:     11750000000
5880000011000: system.cpu: Running Insts:     11760000000
5885000011000: system.cpu: Running Insts:     11770000000
5890000011000: system.cpu: Running Insts:     11780000000
5895000011000: system.cpu: Running Insts:     11790000000
5900000011000: system.cpu: Running Insts:     11800000000
5905000011000: system.cpu: Running Insts:     11810000000
5910000011000: system.cpu: Running Insts:     11820000000
5915000011000: system.cpu: Running Insts:     11830000000
5920000011000: system.cpu: Running Insts:     11840000000
5925000011000: system.cpu: Running Insts:     11850000000
5930000011000: system.cpu: Running Insts:     11860000000
5935000011000: system.cpu: Running Insts:     11870000000
5940000011000: system.cpu: Running Insts:     11880000000
5945000011000: system.cpu: Running Insts:     11890000000
5950000011000: system.cpu: Running Insts:     11900000000
5955000011000: system.cpu: Running Insts:     11910000000
5960000011000: system.cpu: Running Insts:     11920000000
5965000011000: system.cpu: Running Insts:     11930000000
5970000011000: system.cpu: Running Insts:     11940000000
5975000011000: system.cpu: Running Insts:     11950000000
5980000011000: system.cpu: Running Insts:     11960000000
5985000011000: system.cpu: Running Insts:     11970000000
5990000011000: system.cpu: Running Insts:     11980000000
5995000011000: system.cpu: Running Insts:     11990000000
6000000011000: system.cpu: Running Insts:     12000000000
6005000011000: system.cpu: Running Insts:     12010000000
6010000011000: system.cpu: Running Insts:     12020000000
6015000011000: system.cpu: Running Insts:     12030000000
6020000011000: system.cpu: Running Insts:     12040000000
6025000011000: system.cpu: Running Insts:     12050000000
6030000011000: system.cpu: Running Insts:     12060000000
6035000011000: system.cpu: Running Insts:     12070000000
6040000011000: system.cpu: Running Insts:     12080000000
6045000011000: system.cpu: Running Insts:     12090000000
6050000011000: system.cpu: Running Insts:     12100000000
6055000011000: system.cpu: Running Insts:     12110000000
6060000011000: system.cpu: Running Insts:     12120000000
6065000011000: system.cpu: Running Insts:     12130000000
6070000011000: system.cpu: Running Insts:     12140000000
6075000011000: system.cpu: Running Insts:     12150000000
6080000011000: system.cpu: Running Insts:     12160000000
6085000011000: system.cpu: Running Insts:     12170000000
6090000011000: system.cpu: Running Insts:     12180000000
6095000011000: system.cpu: Running Insts:     12190000000
6100000011000: system.cpu: Running Insts:     12200000000
6105000011000: system.cpu: Running Insts:     12210000000
6110000011000: system.cpu: Running Insts:     12220000000
6115000011000: system.cpu: Running Insts:     12230000000
6120000011000: system.cpu: Running Insts:     12240000000
6125000011000: system.cpu: Running Insts:     12250000000
6130000011000: system.cpu: Running Insts:     12260000000
6135000011000: system.cpu: Running Insts:     12270000000
6140000011000: system.cpu: Running Insts:     12280000000
6145000011000: system.cpu: Running Insts:     12290000000
6150000011000: system.cpu: Running Insts:     12300000000
6155000011000: system.cpu: Running Insts:     12310000000
6160000011000: system.cpu: Running Insts:     12320000000
6165000011000: system.cpu: Running Insts:     12330000000
6170000011000: system.cpu: Running Insts:     12340000000
6175000011000: system.cpu: Running Insts:     12350000000
6180000011000: system.cpu: Running Insts:     12360000000
6185000011000: system.cpu: Running Insts:     12370000000
6190000011000: system.cpu: Running Insts:     12380000000
6195000011000: system.cpu: Running Insts:     12390000000
6200000011000: system.cpu: Running Insts:     12400000000
6205000011000: system.cpu: Running Insts:     12410000000
6210000011000: system.cpu: Running Insts:     12420000000
6215000011000: system.cpu: Running Insts:     12430000000
6220000011000: system.cpu: Running Insts:     12440000000
6225000011000: system.cpu: Running Insts:     12450000000
6230000011000: system.cpu: Running Insts:     12460000000
6235000011000: system.cpu: Running Insts:     12470000000
6240000011000: system.cpu: Running Insts:     12480000000
6245000011000: system.cpu: Running Insts:     12490000000
6250000011000: system.cpu: Running Insts:     12500000000
6255000011000: system.cpu: Running Insts:     12510000000
6260000011000: system.cpu: Running Insts:     12520000000
6265000011000: system.cpu: Running Insts:     12530000000
6270000011000: system.cpu: Running Insts:     12540000000
6275000011000: system.cpu: Running Insts:     12550000000
6280000011000: system.cpu: Running Insts:     12560000000
6285000011000: system.cpu: Running Insts:     12570000000
6290000011000: system.cpu: Running Insts:     12580000000
6295000011000: system.cpu: Running Insts:     12590000000
6300000011000: system.cpu: Running Insts:     12600000000
6305000011000: system.cpu: Running Insts:     12610000000
6310000011000: system.cpu: Running Insts:     12620000000
6315000011000: system.cpu: Running Insts:     12630000000
6320000011000: system.cpu: Running Insts:     12640000000
6325000011000: system.cpu: Running Insts:     12650000000
6330000011000: system.cpu: Running Insts:     12660000000
6335000011000: system.cpu: Running Insts:     12670000000
6340000011000: system.cpu: Running Insts:     12680000000
6345000011000: system.cpu: Running Insts:     12690000000
6350000011000: system.cpu: Running Insts:     12700000000
6355000011000: system.cpu: Running Insts:     12710000000
6360000011000: system.cpu: Running Insts:     12720000000
6365000011000: system.cpu: Running Insts:     12730000000
6370000011000: system.cpu: Running Insts:     12740000000
6375000011000: system.cpu: Running Insts:     12750000000
6380000011000: system.cpu: Running Insts:     12760000000
6385000011000: system.cpu: Running Insts:     12770000000
6390000011000: system.cpu: Running Insts:     12780000000
6395000011000: system.cpu: Running Insts:     12790000000
6400000011000: system.cpu: Running Insts:     12800000000
6405000011000: system.cpu: Running Insts:     12810000000
6410000011000: system.cpu: Running Insts:     12820000000
6415000011000: system.cpu: Running Insts:     12830000000
6420000011000: system.cpu: Running Insts:     12840000000
6425000011000: system.cpu: Running Insts:     12850000000
6430000011000: system.cpu: Running Insts:     12860000000
6435000011000: system.cpu: Running Insts:     12870000000
6440000011000: system.cpu: Running Insts:     12880000000
6445000011000: system.cpu: Running Insts:     12890000000
6450000011000: system.cpu: Running Insts:     12900000000
6455000011000: system.cpu: Running Insts:     12910000000
6460000011000: system.cpu: Running Insts:     12920000000
6465000011000: system.cpu: Running Insts:     12930000000
6470000011000: system.cpu: Running Insts:     12940000000
6475000011000: system.cpu: Running Insts:     12950000000
6480000011000: system.cpu: Running Insts:     12960000000
6485000011000: system.cpu: Running Insts:     12970000000
6490000011000: system.cpu: Running Insts:     12980000000
6495000011000: system.cpu: Running Insts:     12990000000
6500000011000: system.cpu: Running Insts:     13000000000
6505000011000: system.cpu: Running Insts:     13010000000
6510000011000: system.cpu: Running Insts:     13020000000
6515000011000: system.cpu: Running Insts:     13030000000
6520000011000: system.cpu: Running Insts:     13040000000
6525000011000: system.cpu: Running Insts:     13050000000
6530000011000: system.cpu: Running Insts:     13060000000
6535000011000: system.cpu: Running Insts:     13070000000
6540000011000: system.cpu: Running Insts:     13080000000
6545000011000: system.cpu: Running Insts:     13090000000
6550000011000: system.cpu: Running Insts:     13100000000
6555000011000: system.cpu: Running Insts:     13110000000
6560000011000: system.cpu: Running Insts:     13120000000
6565000011000: system.cpu: Running Insts:     13130000000
6570000011000: system.cpu: Running Insts:     13140000000
6575000011000: system.cpu: Running Insts:     13150000000
6580000011000: system.cpu: Running Insts:     13160000000
6585000011000: system.cpu: Running Insts:     13170000000
6590000011000: system.cpu: Running Insts:     13180000000
6595000011000: system.cpu: Running Insts:     13190000000
6600000011000: system.cpu: Running Insts:     13200000000
6605000011000: system.cpu: Running Insts:     13210000000
6610000011000: system.cpu: Running Insts:     13220000000
6615000011000: system.cpu: Running Insts:     13230000000
6620000011000: system.cpu: Running Insts:     13240000000
6625000011000: system.cpu: Running Insts:     13250000000
6630000011000: system.cpu: Running Insts:     13260000000
6635000011000: system.cpu: Running Insts:     13270000000
6640000011000: system.cpu: Running Insts:     13280000000
6645000011000: system.cpu: Running Insts:     13290000000
6650000011000: system.cpu: Running Insts:     13300000000
6655000011000: system.cpu: Running Insts:     13310000000
6660000011000: system.cpu: Running Insts:     13320000000
6665000011000: system.cpu: Running Insts:     13330000000
6670000011000: system.cpu: Running Insts:     13340000000
6675000011000: system.cpu: Running Insts:     13350000000
6680000011000: system.cpu: Running Insts:     13360000000
6685000011000: system.cpu: Running Insts:     13370000000
6690000011000: system.cpu: Running Insts:     13380000000
6695000011000: system.cpu: Running Insts:     13390000000
6700000011000: system.cpu: Running Insts:     13400000000
6705000011000: system.cpu: Running Insts:     13410000000
[...]
  Variance: 0.0116274
  Variances/cluster: 0.045834 0.0100149 0.00373288 0.00317719 0.008503 0.0489122 0.00447057 0.0521529 0.0279599 0.0322488 0.0337623 0.0139428 0.00813698 0.00255187 0.00976391 
  --------------------------------------------------------------
  Initialization seed trial #3 of 5; initialization seed = 493575238
  --------------------------------------------------------------
  Initialized k-means centers using random sampling: 15 centers
  Number of k-means iterations performed: 36
  BIC score: 75661.7
  Distortion: 33.6326
  Distortions/cluster: 5.87103 2.3163 1.88572 6.68647 4.389 0.654982 0.886837 0.299454 2.12765 0.973559 3.07182 0.351184 0.230101 1.09457 2.79393 
  Variance: 0.0129605
  Variances/cluster: 0.0171167 0.0379721 0.0258318 0.0703839 0.021 0.000974675 0.00300623 0.00611132 0.042553 0.00283011 0.0279257 0.00747201 0.00561222 0.0280659 0.0167301 
  --------------------------------------------------------------
  Initialization seed trial #4 of 5; initialization seed = 493575239
  --------------------------------------------------------------
  Initialized k-means centers using random sampling: 15 centers
  Number of k-means iterations performed: 36
  BIC score: 77954.9
  Distortion: 30.2572
  Distortions/cluster: 1.2254 5.78367 1.6815 0.460533 0.612867 0.73873 0.976293 0.366581 1.09457 6.68647 2.3163 1.50699 1.88572 2.12765 2.79393 
  Variance: 0.0116598
  Variances/cluster: 0.0155113 0.00910814 0.0126429 0.0085284 0.00942873 0.00109118 0.0032435 0.00488775 0.0280659 0.0703839 0.0379721 0.0165604 0.0258318 0.042553 0.0167301 
  --------------------------------------------------------------
  Initialization seed trial #5 of 5; initialization seed = 493575240
  --------------------------------------------------------------
  Initialized k-means centers using random sampling: 15 centers
  Number of k-means iterations performed: 32
  BIC score: 76799.6
  Distortion: 32.3148
  Distortions/cluster: 2.54086 1.80603 3.89104 2.90985 0.73873 5.46448 0.0348083 3.82435 0.723032 2.17592 2.41664 1.34312 3.20958 0.775867 0.460533 
  Variance: 0.0124527
  Variances/cluster: 0.0306127 0.0368577 0.0219833 0.00829017 0.00109118 0.00875718 0.0348083 0.0305948 0.0104787 0.0473025 0.039617 0.00987591 0.0458512 0.0107759 0.0085284 
  The best initialization seed trial was #4

--------------------------------------------------------------
Run number 4 of at most 7, k = 22
--------------------------------------------------------------
  --------------------------------------------------------------
  Initialization seed trial #1 of 5; initialization seed = 493575241
  --------------------------------------------------------------
  Initialized k-means centers using random sampling: 22 centers
  Number of k-means iterations performed: 17
  BIC score: 82153.4
  Distortion: 22.6555
  Distortions/cluster: 0.623336 0.790609 0.366581 0.0363147 0.253024 1.6815 0.0483002 0.743836 3.1912 3.71801 0.407041 0.0611524 0.302242 0.827422 1.86543 2.86979 0.560213 0.180508 0.0982292 0.582937 3.12504 0.322812 
  Variance: 0.00875407
  Variances/cluster: 0.00973962 0.0208055 0.00488775 0.000806994 0.00204051 0.0126429 0.000894448 0.0169054 0.0287495 0.0489212 0.00168199 0.000837704 0.0100747 0.0258569 0.03807 0.0337623 0.0169761 0.00475021 0.00050896 0.00910839 0.00421732 0.001323 
  --------------------------------------------------------------
  Initialization seed trial #2 of 5; initialization seed = 493575242
  --------------------------------------------------------------
  Initialized k-means centers using random sampling: 22 centers
  Number of k-means iterations performed: 21
  BIC score: 83730.3
  Distortion: 20.8843
  Distortions/cluster: 0.218693 2.3163 0.0348083 1.42352 0.32526 2.82677 4.389 0.933388 2.26077 0.654982 0.482089 0.0901697 0.212778 1.24177 0.952009 0.302932 0.368479 0.4147 0.225698 0.615122 0.0614848 0.533564 
  Variance: 0.00806966
  Variances/cluster: 0.00508589 0.0379721 0.0348083 0.0206307 0.0104923 0.0403824 0.021 0.0212134 0.0443289 0.000974675 0.0079031 0.00125236 0.00531944 0.030287 0.00652061 0.00618229 0.00257678 0.007975 0.000994262 0.010252 0.000374907 0.00189207 
  --------------------------------------------------------------
  Initialization seed trial #3 of 5; initialization seed = 493575243
  --------------------------------------------------------------
  Initialized k-means centers using random sampling: 22 centers
  Number of k-means iterations performed: 28
  BIC score: 84064.4
  Distortion: 20.3696
  Distortions/cluster: 0.4147 0.370634 1.53194 1.37335 0.716012 0.749687 0.32526 1.00239 0.933388 1.52724 0.0901697 0.228106 0.482089 0.124148 4.389 2.64191 0.444868 0.163395 1.67497 0.741022 0.0906864 0.354685 
  Variance: 0.0078708
  Variances/cluster: 0.007975 0.00148254 0.033303 0.0319383 0.010377 0.0166597 0.0104923 0.00681898 0.0212134 0.0293701 0.00125236 0.00262191 0.0079031 0.00133492 0.021 0.0388516 0.00839374 0.000739345 0.0328425 0.0114003 0.000552966 0.000533361 
  --------------------------------------------------------------
  Initialization seed trial #4 of 5; initialization seed = 493575244
  --------------------------------------------------------------
  Initialized k-means centers using random sampling: 22 centers
  Number of k-means iterations performed: 22
  BIC score: 84109.2
  Distortion: 20.3103
  Distortions/cluster: 0.736444 1.69439 2.00077 2.41908 1.66513 0.214195 1.09457 0.750912 0.654982 2.3163 0.184287 0.0901697 0.69509 0.579985 1.38206 0.212778 0.0439189 0.0754067 1.30887 0.676172 0.289384 1.2254 
  Variance: 0.00784787
  Variances/cluster: 0.0105206 0.0235332 0.040832 0.0465208 0.0314175 0.00498128 0.0280659 0.00863117 0.000974675 0.0379721 0.000830123 0.00125236 0.0178228 0.00420279 0.0100149 0.00531944 0.000283348 0.000856894 0.0157695 0.00234782 0.00602884 0.0155113 
  --------------------------------------------------------------
  Initialization seed trial #5 of 5; initialization seed = 493575245
  --------------------------------------------------------------
  Initialized k-means centers using random sampling: 22 centers
  Number of k-means iterations performed: 26
  BIC score: 86126.3
  Distortion: 18.4992
  Distortions/cluster: 0.0950153 0.720622 0.0695067 0.170813 0.433099 1.02765 0.460647 0.395525 0.493748 1.00239 1.61022 2.77549 0.279669 0.354774 1.12501 2.26077 0.617571 0.532988 0.629864 2.17203 0.981454 0.290316 
  Variance: 0.00714806
  Variances/cluster: 0.00130158 0.0104438 0.00112108 0.00656975 0.00254764 0.00249429 0.0085305 0.00520428 0.00796367 0.00681898 0.0240332 0.0402245 0.00120547 0.0110867 0.0250002 0.0443289 0.0102929 0.00951765 0.0095434 0.0368142 0.0265258 0.000437883 
  The best initialization seed trial was #5

--------------------------------------------------------------
Run number 5 of at most 7, k = 18
--------------------------------------------------------------
  --------------------------------------------------------------
  Initialization seed trial #1 of 5; initialization seed = 493575246
  --------------------------------------------------------------
  Initialized k-means centers using random sampling: 18 centers
  Number of k-means iterations performed: 25
  BIC score: 79783.8
  Distortion: 26.1578
  Distortions/cluster: 0.4147 0.0901697 2.91367 0.716012 1.74144 0.0754868 0.468588 0.460533 4.389 0.984872 1.29246 2.69017 4.17223 0.207914 0.482089 0.741022 3.52922 0.788248 
  Variance: 0.0100917
  Variances/cluster: 0.007975 0.00125236 0.0338798 0.010377 0.0322488 0.000441443 0.00167953 0.0085284 0.021 0.00647942 0.008503 0.0489122 0.0521529 0.000919972 0.0079031 0.0114003 0.045834 0.00116261 
  --------------------------------------------------------------
  Initialization seed trial #2 of 5; initialization seed = 493575247
  --------------------------------------------------------------
  Initialized k-means centers using random sampling: 18 centers
  Number of k-means iterations performed: 55
  BIC score: 81061.3
  Distortion: 25.319
  Distortions/cluster: 1.55043 1.26919 0.366581 1.26591 0.653074 0.976293 1.73783 5.24545 0.398712 0.0746576 0.0842014 0.809348 0.891154 3.20958 0.922358 3.3113 0.532988 2.01998 
  Variance: 0.00976815
  Variances/cluster: 0.0231407 0.0154779 0.00488775 0.0158239 0.00974738 0.0032435 0.0362048 0.00829977 0.00813698 0.00373288 0.00135809 0.00118847 0.0270047 0.0458512 0.0242726 0.0192517 0.00951765 0.034237 
  --------------------------------------------------------------
  Initialization seed trial #3 of 5; initialization seed = 493575248
  --------------------------------------------------------------
  Initialized k-means centers using random sampling: 18 centers
  Number of k-means iterations performed: 35
  BIC score: 80755.5
  Distortion: 25.1294
  Distortions/cluster: 3.07182 1.29246 0.230101 1.6815 0.299454 0.351184 2.3163 0.654982 0.263412 1.09457 1.69439 1.52761 0.0950153 2.12765 2.942 3.37889 0.366581 1.74144 
  Variance: 0.00969497
  Variances/cluster: 0.0279257 0.008503 0.00561222 0.0126429 0.00611132 0.00747201 0.0379721 0.000974675 0.00114527 0.0280659 0.0235332 0.00440233 0.00130158 0.042553 0.00945981 0.0444591 0.00488775 0.0322488 
  --------------------------------------------------------------
  Initialization seed trial #4 of 5; initialization seed = 493575249
  --------------------------------------------------------------
  Initialized k-means centers using random sampling: 18 centers
  Number of k-means iterations performed: 18
  BIC score: 81239.1
  Distortion: 24.5069
  Distortions/cluster: 0.214195 0.654982 2.26077 1.69439 0.925891 1.74144 0.212778 2.3163 1.29246 1.09457 3.24206 1.2254 0.289384 4.389 1.35817 0.0901697 0.196047 1.30887 
  Variance: 0.00945481
  Variances/cluster: 0.00498128 0.000974675 0.0443289 0.0235332 0.00304569 0.0322488 0.00531944 0.0379721 0.008503 0.0280659 0.0432275 0.0155113 0.00602884 0.021 0.00432537 0.00125236 0.000875208 0.0157695 
  --------------------------------------------------------------
  Initialization seed trial #5 of 5; initialization seed = 493575250
  --------------------------------------------------------------
  Initialized k-means centers using random sampling: 18 centers
  Number of k-means iterations performed: 16
  BIC score: 80587.8
  Distortion: 25.3422
  Distortions/cluster: 0.922358 3.43582 0.996677 0.827422 4.389 0.157612 1.36048 0.856097 1.73783 2.839 1.73452 0.622225 2.01998 0.201222 1.11542 0.634906 1.05728 0.434371 
  Variance: 0.00977709
  Variances/cluster: 0.0242726 0.0274866 0.0212059 0.0258569 0.021 0.000885463 0.0206133 0.00294191 0.0362048 0.0105933 0.0024293 0.00447644 0.034237 0.00203255 0.0139428 0.0171596 0.024588 0.00365018 
  The best initialization seed trial was #4

--------------------------------------------------------------
Run number 6 of at most 7, k = 20
--------------------------------------------------------------
  --------------------------------------------------------------
  Initialization seed trial #1 of 5; initialization seed = 493575251
  --------------------------------------------------------------
  Initialized k-means centers using random sampling: 20 centers
  Number of k-means iterations performed: 16
  BIC score: 82837.1
  Distortion: 22.1049
  Distortions/cluster: 1.74144 2.01908 0.588624 0.94042 0.208693 2.55972 0.0901697 1.53158 1.23241 0.767633 1.24177 3.24206 0.73873 1.2254 0.460533 1.38206 0.736444 0.0348083 0.0709068 1.29246 
  Variance: 0.00853472
  Variances/cluster: 0.0322488 0.0412057 0.00919725 0.00639741 0.000927525 0.0406306 0.00125236 0.0166476 0.0181237 0.00256733 0.030287 0.0432275 0.00109118 0.0155113 0.0085284 0.0100149 0.0105206 0.0348083 0.000417099 0.008503 
  --------------------------------------------------------------
  Initialization seed trial #2 of 5; initialization seed = 493575252
  --------------------------------------------------------------
  Initialized k-means centers using random sampling: 20 centers
  Number of k-means iterations performed: 31
  BIC score: 83418.7
  Distortion: 21.4608
  Distortions/cluster: 4.389 2.41664 0.653074 0.858954 0.0614848 0.582937 0.532988 0.32526 0.557686 1.05341 2.59497 1.12501 0.370597 0.0901697 1.39394 0.940334 0.225698 0.372308 2.3729 0.543433 
  Variance: 0.00828602
  Variances/cluster: 0.021 0.039617 0.00974738 0.00125946 0.000374907 0.00910839 0.00951765 0.0104923 0.00197062 0.0277214 0.0312646 0.0250002 0.00772077 0.00125236 0.0316805 0.00644064 0.000994262 0.00258547 0.035953 0.00905721 
  --------------------------------------------------------------
  Initialization seed trial #3 of 5; initialization seed = 493575253
  --------------------------------------------------------------
  Initialized k-means centers using random sampling: 20 centers
  Number of k-means iterations performed: 18
  BIC score: 82568.1
  Distortion: 22.4369
  Distortions/cluster: 1.12501 0.460533 3.01922 0.741022 0.354964 1.05065 0.748641 1.6815 0.716012 0.366581 2.69017 3.02416 0.4147 0.0901697 0.159054 0.831839 4.02039 0.482089 0.157924 0.302242 
  Variance: 0.00866289
  Variances/cluster: 0.0250002 0.0085284 0.0351072 0.0114003 0.00134967 0.00709896 0.00250382 0.0126429 0.010377 0.00488775 0.0489122 0.0432023 0.007975 0.00125236 0.000722972 0.00122509 0.050891 0.0079031 0.00451212 0.0100747 
  --------------------------------------------------------------
  Initialization seed trial #4 of 5; initialization seed = 493575254
  --------------------------------------------------------------
  Initialized k-means centers using random sampling: 20 centers
  Number of k-means iterations performed: 33
  BIC score: 83012.9
  Distortion: 22.0392
  Distortions/cluster: 0.175193 3.11446 0.302932 0.695642 1.36247 0.257351 4.389 1.67497 0.212778 1.37335 1.29246 0.615122 0.218693 0.482089 0.567267 1.52724 0.0901697 0.4147 1.74144 1.53194 
  Variance: 0.00850936
  Variances/cluster: 0.000785618 0.0420873 0.00618229 0.00239052 0.0043253 0.000390517 0.021 0.0328425 0.00531944 0.0319383 0.008503 0.010252 0.00508589 0.0079031 0.0128924 0.0293701 0.00125236 0.007975 0.0322488 0.033303 
  --------------------------------------------------------------
  Initialization seed trial #5 of 5; initialization seed = 493575255
  --------------------------------------------------------------
  Initialized k-means centers using random sampling: 20 centers
  Number of k-means iterations performed: 31
  BIC score: 82158.8
  Distortion: 22.8684
  Distortions/cluster: 0.984872 1.29246 2.3163 1.69439 0.0754868 1.74144 0.73873 3.37889 0.714226 0.0901697 0.2308 2.12765 0.396064 0.191291 0.460533 0.346815 0.388714 0.216002 1.09457 4.389 
  Variance: 0.00882949
  Variances/cluster: 0.00647942 0.008503 0.0379721 0.0235332 0.000441443 0.0322488 0.00109118 0.0444591 0.0103511 0.00125236 0.00591795 0.042553 0.00660106 0.000850184 0.0085284 0.007707 0.0014291 0.00526833 0.0280659 0.021 
  The best initialization seed trial was #2

--------------------------------------------------------------
Run number 7 of at most 7, k = 21
--------------------------------------------------------------
  --------------------------------------------------------------
  Initialization seed trial #1 of 5; initialization seed = 493575256
  --------------------------------------------------------------
  Initialized k-means centers using random sampling: 21 centers
  Number of k-means iterations performed: 29
  BIC score: 81750.9
  Distortion: 23.0929
  Distortions/cluster: 2.69017 1.6815 0.0754868 0.704354 0.464227 0.482089 0.4147 0.984872 0.0251747 0.212778 1.74144 0.615122 3.52922 0.302932 2.91367 0.0377964 4.17223 1.29246 0.167366 0.366581 0.218693 
  Variance: 0.00891961
  Variances/cluster: 0.0489122 0.0126429 0.000441443 0.00104659 0.00166988 0.0079031 0.007975 0.00647942 0.000599397 0.00531944 0.0322488 0.010252 0.045834 0.00618229 0.0338798 0.000821661 0.0521529 0.008503 0.00079698 0.00488775 0.00508589 
  --------------------------------------------------------------
  Initialization seed trial #2 of 5; initialization seed = 493575257
  --------------------------------------------------------------
  Initialized k-means centers using random sampling: 21 centers
  Number of k-means iterations performed: 27
  BIC score: 85085.3
  Distortion: 19.8999
  Distortions/cluster: 0.196047 0.0348083 1.10282 0.791578 0.698403 0.579985 0.666947 1.2254 0.170813 1.20861 0.69509 4.389 0.0901697 1.07912 0.928672 0.285912 0.963692 1.1008 1.20645 1.61648 0.869141 
  Variance: 0.00768634
  Variances/cluster: 0.000875208 0.0348083 0.0250641 0.0143923 0.0205413 0.00420279 0.0171012 0.0155113 0.00656975 0.00173651 0.0178228 0.021 0.00125236 0.0136597 0.00304483 0.0124309 0.0224114 0.0275201 0.00387925 0.0170156 0.0234903 
  --------------------------------------------------------------
  Initialization seed trial #3 of 5; initialization seed = 493575258
  --------------------------------------------------------------
  Initialized k-means centers using random sampling: 21 centers
  Number of k-means iterations performed: 34
  BIC score: 84900
  Distortion: 19.8632
  Distortions/cluster: 0.0901697 0.450887 0.704545 0.687085 1.30546 4.389 0.283568 0.0614848 0.891154 2.20029 0.836046 0.225698 0.369461 0.484616 1.56718 0.501644 1.36048 0.922358 0.34934 0.533499 1.64924 
  Variance: 0.00767215
  Variances/cluster: 0.00125236 0.0166995 0.0105156 0.0171771 0.0159202 0.021 0.00945225 0.000374907 0.0270047 0.0360703 0.00580587 0.000994262 0.0123154 0.00865385 0.0340692 0.00179158 0.0206133 0.0242726 0.00244294 0.00846825 0.00231961 
  --------------------------------------------------------------
  Initialization seed trial #4 of 5; initialization seed = 493575259
  --------------------------------------------------------------
  Initialized k-means centers using random sampling: 21 centers
  Number of k-means iterations performed: 21
  BIC score: 85272.4
  Distortion: 19.4289
  Distortions/cluster: 0.407041 1.12501 0.940334 0.869141 1.07912 1.23904 1.38206 0.302242 2.3729 0.179966 1.61648 1.2254 1.36048 0.526626 1.73452 0.0629357 0.710259 0.180508 1.28823 0.0901697 0.736444 
  Variance: 0.0075044
  Variances/cluster: 0.00168199 0.0250002 0.00644064 0.0234903 0.0136597 0.0295009 0.0100149 0.0100747 0.035953 0.000814327 0.0170156 0.0155113 0.0206133 0.00207333 0.0024293 0.000850483 0.021523 0.00475021 0.0268382 0.00125236 0.0105206 
  --------------------------------------------------------------
  Initialization seed trial #5 of 5; initialization seed = 493575260
  --------------------------------------------------------------
  Initialized k-means centers using random sampling: 21 centers
  Number of k-means iterations performed: 24
  BIC score: 81544.2
  Distortion: 23.6283
  Distortions/cluster: 1.29246 4.389 0.770493 0.103742 0.170813 2.12765 0.231643 0.200411 1.49769 1.2254 0.0377964 1.74144 0.168021 0.0418731 1.61022 0.153223 0.981454 3.37889 0.0251747 1.30887 2.17203 
  Variance: 0.00912641
  Variances/cluster: 0.008503 0.021 0.00259425 0.000160095 0.00656975 0.042553 0.00526461 0.00477168 0.00469494 0.0155113 0.000821661 0.0322488 0.000803926 0.00232628 0.0240332 0.00478821 0.0265258 0.0444591 0.000599397 0.0157695 0.0368142 
  The best initialization seed trial was #4

------------------------------------------------------------------
------------------------------------------------------------------
Post-processing runs
------------------------------------------------------------------
------------------------------------------------------------------
  For the BIC threshold, the best clustering was run 4 (k = 22)
  Post-processing run 4 (k = 22)
    Saving simpoints of all non-empty clusters to file '/home/cuihongwei/experiment/simpoint/401.bzip2/arm-401.bzip2-input3-190517-230300/simpoint_file'
    Saving weights of all non-empty clusters to file '/home/cuihongwei/experiment/simpoint/401.bzip2/arm-401.bzip2-input3-190517-230300/weight_file'
