
******************************directory****************************
spec_dir: /home/cuihongwei/experiment/mcpat-gem5-master/spec2006
run_dir:  /home/cuihongwei/experiment/simpoint/429.mcf/arm-429.mcf-input1-190518-113053/run
gem5_dir: /home/cuihongwei/experiment/experiment-gem5/raw-gem5
gem5_output_dir: /home/cuihongwei/experiment/simpoint/429.mcf/arm-429.mcf-input1-190518-113053
benchmark_output:/home/cuihongwei/experiment/simpoint/429.mcf/arm-429.mcf-input1-190518-113053

******************************benchmark****************************
target:     429.mcf
executable: mcf
args:       inp.in
input:      
output:     /home/cuihongwei/experiment/simpoint/429.mcf/arm-429.mcf-input1-190518-113053/run/inp.out
errout:     /home/cuihongwei/experiment/simpoint/429.mcf/arm-429.mcf-input1-190518-113053/run/inp.err

******************************gem5****************************
arch:       /home/cuihongwei/experiment/experiment-gem5/raw-gem5/build/ARM/gem5.opt
config:     /home/cuihongwei/experiment/experiment-gem5/raw-gem5/configs/example/se.py
args:       --simpoint-profile --simpoint-interval=100000000 --maxinsts=900000000000 --cpu-type=NonCachingSimpleCPU --mem-type=SimpleMemory --mem-size=8GB

******************************simulation****************************
start time:(year-mon-day hour-minute-second)19-05-18 11-30-53
gem5 Simulator System.  http://gem5.org
gem5 is copyrighted software; use the --copyright option for details.

gem5 compiled May 17 2019 22:58:52
gem5 started May 18 2019 11:30:54
gem5 executing on mprc-R730, pid 3465
command line: /home/cuihongwei/experiment/experiment-gem5/raw-gem5/build/ARM/gem5.opt --outdir=/home/cuihongwei/experiment/simpoint/429.mcf/arm-429.mcf-input1-190518-113053 --debug-flags=ShowRunning /home/cuihongwei/experiment/experiment-gem5/raw-gem5/configs/example/se.py --simpoint-profile --simpoint-interval=100000000 --maxinsts=900000000000 --cpu-type=NonCachingSimpleCPU --mem-type=SimpleMemory --mem-size=8GB --cmd=mcf --options=inp.in --output=/home/cuihongwei/experiment/simpoint/429.mcf/arm-429.mcf-input1-190518-113053/run/inp.out --input= --errout=/home/cuihongwei/experiment/simpoint/429.mcf/arm-429.mcf-input1-190518-113053/run/inp.err

Global frequency set at 1000000000000 ticks per second
**** REAL SIMULATION ****
      0: system.cpu: Running Insts:               0
5000010500: system.cpu: Running Insts:        10000000
10000014500: system.cpu: Running Insts:        20000000
15000018000: system.cpu: Running Insts:        30000000
20000022000: system.cpu: Running Insts:        40000000
25000025500: system.cpu: Running Insts:        50000000
30000029500: system.cpu: Running Insts:        60000000
35000033500: system.cpu: Running Insts:        70000000
40000037500: system.cpu: Running Insts:        80000000
45000041500: system.cpu: Running Insts:        90000000
50000045500: system.cpu: Running Insts:       100000000
55000049500: system.cpu: Running Insts:       110000000
60000053500: system.cpu: Running Insts:       120000000
65000057500: system.cpu: Running Insts:       130000000
70000061500: system.cpu: Running Insts:       140000000
75000065500: system.cpu: Running Insts:       150000000
80000069500: system.cpu: Running Insts:       160000000
85000073500: system.cpu: Running Insts:       170000000
90000077500: system.cpu: Running Insts:       180000000
95000081500: system.cpu: Running Insts:       190000000
100000085500: system.cpu: Running Insts:       200000000
105000089500: system.cpu: Running Insts:       210000000
110000093500: system.cpu: Running Insts:       220000000
115000097500: system.cpu: Running Insts:       230000000
120000102000: system.cpu: Running Insts:       240000000
125000106000: system.cpu: Running Insts:       250000000
130000110000: system.cpu: Running Insts:       260000000
135000114000: system.cpu: Running Insts:       270000000
140000118000: system.cpu: Running Insts:       280000000
145000122000: system.cpu: Running Insts:       290000000
150000126000: system.cpu: Running Insts:       300000000
155000130000: system.cpu: Running Insts:       310000000
160000134000: system.cpu: Running Insts:       320000000
165000138000: system.cpu: Running Insts:       330000000
170000142000: system.cpu: Running Insts:       340000000
175000146000: system.cpu: Running Insts:       350000000
180000150000: system.cpu: Running Insts:       360000000
185000154000: system.cpu: Running Insts:       370000000
190000158000: system.cpu: Running Insts:       380000000
195000162000: system.cpu: Running Insts:       390000000
200000166000: system.cpu: Running Insts:       400000000
205000170000: system.cpu: Running Insts:       410000000
210000174000: system.cpu: Running Insts:       420000000
215000178000: system.cpu: Running Insts:       430000000
220000182000: system.cpu: Running Insts:       440000000
225000186000: system.cpu: Running Insts:       450000000
230000190000: system.cpu: Running Insts:       460000000
235000194000: system.cpu: Running Insts:       470000000
240000198000: system.cpu: Running Insts:       480000000
245000202000: system.cpu: Running Insts:       490000000
250000206500: system.cpu: Running Insts:       500000000
255000206500: system.cpu: Running Insts:       510000000
260000206500: system.cpu: Running Insts:       520000000
265000206500: system.cpu: Running Insts:       530000000
270000206500: system.cpu: Running Insts:       540000000
275000206500: system.cpu: Running Insts:       550000000
280000206500: system.cpu: Running Insts:       560000000
285000206500: system.cpu: Running Insts:       570000000
290000206500: system.cpu: Running Insts:       580000000
295000206500: system.cpu: Running Insts:       590000000
300000206500: system.cpu: Running Insts:       600000000
305000206500: system.cpu: Running Insts:       610000000
310000206500: system.cpu: Running Insts:       620000000
315000206500: system.cpu: Running Insts:       630000000
320000206500: system.cpu: Running Insts:       640000000
325000206500: system.cpu: Running Insts:       650000000
330000206500: system.cpu: Running Insts:       660000000
335000206500: system.cpu: Running Insts:       670000000
340000206500: system.cpu: Running Insts:       680000000
345000206500: system.cpu: Running Insts:       690000000
350000206500: system.cpu: Running Insts:       700000000
355000206500: system.cpu: Running Insts:       710000000
360000206500: system.cpu: Running Insts:       720000000
365000206500: system.cpu: Running Insts:       730000000
370000206500: system.cpu: Running Insts:       740000000
375000206500: system.cpu: Running Insts:       750000000
380000206500: system.cpu: Running Insts:       760000000
385000206500: system.cpu: Running Insts:       770000000
390000206500: system.cpu: Running Insts:       780000000
395000206500: system.cpu: Running Insts:       790000000
400000206500: system.cpu: Running Insts:       800000000
405000206500: system.cpu: Running Insts:       810000000
410000206500: system.cpu: Running Insts:       820000000
415000206500: system.cpu: Running Insts:       830000000
420000206500: system.cpu: Running Insts:       840000000
425000206500: system.cpu: Running Insts:       850000000
430000206500: system.cpu: Running Insts:       860000000
435000206500: system.cpu: Running Insts:       870000000
440000206500: system.cpu: Running Insts:       880000000
445000206500: system.cpu: Running Insts:       890000000
450000206500: system.cpu: Running Insts:       900000000
455000206500: system.cpu: Running Insts:       910000000
460000206500: system.cpu: Running Insts:       920000000
465000206500: system.cpu: Running Insts:       930000000
470000206500: system.cpu: Running Insts:       940000000
475000206500: system.cpu: Running Insts:       950000000
480000206500: system.cpu: Running Insts:       960000000
485000206500: system.cpu: Running Insts:       970000000
490000206500: system.cpu: Running Insts:       980000000
495000206500: system.cpu: Running Insts:       990000000
500000206500: system.cpu: Running Insts:      1000000000
505000206500: system.cpu: Running Insts:      1010000000
510000206500: system.cpu: Running Insts:      1020000000
515000206500: system.cpu: Running Insts:      1030000000
520000206500: system.cpu: Running Insts:      1040000000
525000206500: system.cpu: Running Insts:      1050000000
530000206500: system.cpu: Running Insts:      1060000000
535000206500: system.cpu: Running Insts:      1070000000
540000206500: system.cpu: Running Insts:      1080000000
545000206500: system.cpu: Running Insts:      1090000000
550000206500: system.cpu: Running Insts:      1100000000
555000206500: system.cpu: Running Insts:      1110000000
560000206500: system.cpu: Running Insts:      1120000000
565000206500: system.cpu: Running Insts:      1130000000
570000206500: system.cpu: Running Insts:      1140000000
575000206500: system.cpu: Running Insts:      1150000000
580000206500: system.cpu: Running Insts:      1160000000
585000206500: system.cpu: Running Insts:      1170000000
590000206500: system.cpu: Running Insts:      1180000000
595000206500: system.cpu: Running Insts:      1190000000
600000206500: system.cpu: Running Insts:      1200000000
605000206500: system.cpu: Running Insts:      1210000000
610000206500: system.cpu: Running Insts:      1220000000
615000206500: system.cpu: Running Insts:      1230000000
620000206500: system.cpu: Running Insts:      1240000000
625000206500: system.cpu: Running Insts:      1250000000
630000206500: system.cpu: Running Insts:      1260000000
635000206500: system.cpu: Running Insts:      1270000000
640000206500: system.cpu: Running Insts:      1280000000
645000206500: system.cpu: Running Insts:      1290000000
650000206500: system.cpu: Running Insts:      1300000000
655000206500: system.cpu: Running Insts:      1310000000
660000206500: system.cpu: Running Insts:      1320000000
665000206500: system.cpu: Running Insts:      1330000000
670000206500: system.cpu: Running Insts:      1340000000
675000206500: system.cpu: Running Insts:      1350000000
680000206500: system.cpu: Running Insts:      1360000000
685000206500: system.cpu: Running Insts:      1370000000
690000206500: system.cpu: Running Insts:      1380000000
695000206500: system.cpu: Running Insts:      1390000000
700000206500: system.cpu: Running Insts:      1400000000
705000206500: system.cpu: Running Insts:      1410000000
710000206500: system.cpu: Running Insts:      1420000000
715000206500: system.cpu: Running Insts:      1430000000
720000206500: system.cpu: Running Insts:      1440000000
725000206500: system.cpu: Running Insts:      1450000000
730000206500: system.cpu: Running Insts:      1460000000
735000206500: system.cpu: Running Insts:      1470000000
740000206500: system.cpu: Running Insts:      1480000000
745000206500: system.cpu: Running Insts:      1490000000
750000206500: system.cpu: Running Insts:      1500000000
755000206500: system.cpu: Running Insts:      1510000000
760000206500: system.cpu: Running Insts:      1520000000
765000206500: system.cpu: Running Insts:      1530000000
770000206500: system.cpu: Running Insts:      1540000000
775000206500: system.cpu: Running Insts:      1550000000
780000206500: system.cpu: Running Insts:      1560000000
785000206500: system.cpu: Running Insts:      1570000000
790000206500: system.cpu: Running Insts:      1580000000
795000206500: system.cpu: Running Insts:      1590000000
800000206500: system.cpu: Running Insts:      1600000000
805000206500: system.cpu: Running Insts:      1610000000
810000206500: system.cpu: Running Insts:      1620000000
815000206500: system.cpu: Running Insts:      1630000000
820000206500: system.cpu: Running Insts:      1640000000
825000206500: system.cpu: Running Insts:      1650000000
830000206500: system.cpu: Running Insts:      1660000000
835000206500: system.cpu: Running Insts:      1670000000
840000206500: system.cpu: Running Insts:      1680000000
845000206500: system.cpu: Running Insts:      1690000000
850000206500: system.cpu: Running Insts:      1700000000
855000206500: system.cpu: Running Insts:      1710000000
860000206500: system.cpu: Running Insts:      1720000000
865000206500: system.cpu: Running Insts:      1730000000
870000206500: system.cpu: Running Insts:      1740000000
875000206500: system.cpu: Running Insts:      1750000000
880000206500: system.cpu: Running Insts:      1760000000
885000206500: system.cpu: Running Insts:      1770000000
890000206500: system.cpu: Running Insts:      1780000000
895000206500: system.cpu: Running Insts:      1790000000
900000206500: system.cpu: Running Insts:      1800000000
905000206500: system.cpu: Running Insts:      1810000000
910000206500: system.cpu: Running Insts:      1820000000
915000206500: system.cpu: Running Insts:      1830000000
920000206500: system.cpu: Running Insts:      1840000000
925000206500: system.cpu: Running Insts:      1850000000
930000206500: system.cpu: Running Insts:      1860000000
935000206500: system.cpu: Running Insts:      1870000000
940000206500: system.cpu: Running Insts:      1880000000
945000206500: system.cpu: Running Insts:      1890000000
950000206500: system.cpu: Running Insts:      1900000000
955000206500: system.cpu: Running Insts:      1910000000
960000206500: system.cpu: Running Insts:      1920000000
965000206500: system.cpu: Running Insts:      1930000000
970000206500: system.cpu: Running Insts:      1940000000
975000206500: system.cpu: Running Insts:      1950000000
980000206500: system.cpu: Running Insts:      1960000000
985000206500: system.cpu: Running Insts:      1970000000
990000206500: system.cpu: Running Insts:      1980000000
995000206500: system.cpu: Running Insts:      1990000000
1000000206500: system.cpu: Running Insts:      2000000000
1005000206500: system.cpu: Running Insts:      2010000000
1010000206500: system.cpu: Running Insts:      2020000000
1015000206500: system.cpu: Running Insts:      2030000000
1020000206500: system.cpu: Running Insts:      2040000000
1025000206500: system.cpu: Running Insts:      2050000000
1030000206500: system.cpu: Running Insts:      2060000000
1035000206500: system.cpu: Running Insts:      2070000000
1040000206500: system.cpu: Running Insts:      2080000000
1045000206500: system.cpu: Running Insts:      2090000000
1050000206500: system.cpu: Running Insts:      2100000000
1055000206500: system.cpu: Running Insts:      2110000000
1060000206500: system.cpu: Running Insts:      2120000000
1065000206500: system.cpu: Running Insts:      2130000000
1070000206500: system.cpu: Running Insts:      2140000000
1075000206500: system.cpu: Running Insts:      2150000000
1080000206500: system.cpu: Running Insts:      2160000000
1085000206500: system.cpu: Running Insts:      2170000000
1090000206500: system.cpu: Running Insts:      2180000000
1095000206500: system.cpu: Running Insts:      2190000000
1100000206500: system.cpu: Running Insts:      2200000000
1105000206500: system.cpu: Running Insts:      2210000000
1110000206500: system.cpu: Running Insts:      2220000000
1115000206500: system.cpu: Running Insts:      2230000000
1120000206500: system.cpu: Running Insts:      2240000000
1125000206500: system.cpu: Running Insts:      2250000000
1130000206500: system.cpu: Running Insts:      2260000000
1135000206500: system.cpu: Running Insts:      2270000000
1140000206500: system.cpu: Running Insts:      2280000000
1145000206500: system.cpu: Running Insts:      2290000000
1150000206500: system.cpu: Running Insts:      2300000000
1155000206500: system.cpu: Running Insts:      2310000000
1160000206500: system.cpu: Running Insts:      2320000000
1165000206500: system.cpu: Running Insts:      2330000000
1170000206500: system.cpu: Running Insts:      2340000000
1175000206500: system.cpu: Running Insts:      2350000000
1180000206500: system.cpu: Running Insts:      2360000000
1185000206500: system.cpu: Running Insts:      2370000000
1190000206500: system.cpu: Running Insts:      2380000000
1195000206500: system.cpu: Running Insts:      2390000000
1200000206500: system.cpu: Running Insts:      2400000000
1205000206500: system.cpu: Running Insts:      2410000000
1210000206500: system.cpu: Running Insts:      2420000000
1215000206500: system.cpu: Running Insts:      2430000000
1220000206500: system.cpu: Running Insts:      2440000000
1225000206500: system.cpu: Running Insts:      2450000000
1230000206500: system.cpu: Running Insts:      2460000000
1235000206500: system.cpu: Running Insts:      2470000000
1240000206500: system.cpu: Running Insts:      2480000000
1245000206500: system.cpu: Running Insts:      2490000000
1250000206500: system.cpu: Running Insts:      2500000000
1255000206500: system.cpu: Running Insts:      2510000000
1260000206500: system.cpu: Running Insts:      2520000000
1265000206500: system.cpu: Running Insts:      2530000000
1270000206500: system.cpu: Running Insts:      2540000000
1275000206500: system.cpu: Running Insts:      2550000000
1280000206500: system.cpu: Running Insts:      2560000000
1285000206500: system.cpu: Running Insts:      2570000000
1290000206500: system.cpu: Running Insts:      2580000000
1295000206500: system.cpu: Running Insts:      2590000000
1300000206500: system.cpu: Running Insts:      2600000000
1305000206500: system.cpu: Running Insts:      2610000000
1310000206500: system.cpu: Running Insts:      2620000000
1315000206500: system.cpu: Running Insts:      2630000000
1320000206500: system.cpu: Running Insts:      2640000000
1325000206500: system.cpu: Running Insts:      2650000000
1330000206500: system.cpu: Running Insts:      2660000000
1335000206500: system.cpu: Running Insts:      2670000000
1340000206500: system.cpu: Running Insts:      2680000000
1345000206500: system.cpu: Running Insts:      2690000000
1350000206500: system.cpu: Running Insts:      2700000000
1355000206500: system.cpu: Running Insts:      2710000000
1360000206500: system.cpu: Running Insts:      2720000000
1365000206500: system.cpu: Running Insts:      2730000000
1370000206500: system.cpu: Running Insts:      2740000000
1375000206500: system.cpu: Running Insts:      2750000000
1380000206500: system.cpu: Running Insts:      2760000000
1385000206500: system.cpu: Running Insts:      2770000000
1390000206500: system.cpu: Running Insts:      2780000000
1395000206500: system.cpu: Running Insts:      2790000000
1400000206500: system.cpu: Running Insts:      2800000000
1405000206500: system.cpu: Running Insts:      2810000000
1410000206500: system.cpu: Running Insts:      2820000000
1415000206500: system.cpu: Running Insts:      2830000000
1420000206500: system.cpu: Running Insts:      2840000000
1425000206500: system.cpu: Running Insts:      2850000000
1430000206500: system.cpu: Running Insts:      2860000000
1435000206500: system.cpu: Running Insts:      2870000000
1440000206500: system.cpu: Running Insts:      2880000000
1445000206500: system.cpu: Running Insts:      2890000000
1450000206500: system.cpu: Running Insts:      2900000000
1455000206500: system.cpu: Running Insts:      2910000000
1460000206500: system.cpu: Running Insts:      2920000000
1465000206500: system.cpu: Running Insts:      2930000000
1470000206500: system.cpu: Running Insts:      2940000000
1475000206500: system.cpu: Running Insts:      2950000000
1480000206500: system.cpu: Running Insts:      2960000000
1485000206500: system.cpu: Running Insts:      2970000000
1490000206500: system.cpu: Running Insts:      2980000000
1495000206500: system.cpu: Running Insts:      2990000000
1500000206500: system.cpu: Running Insts:      3000000000
1505000206500: system.cpu: Running Insts:      3010000000
1510000206500: system.cpu: Running Insts:      3020000000
1515000206500: system.cpu: Running Insts:      3030000000
1520000206500: system.cpu: Running Insts:      3040000000
1525000206500: system.cpu: Running Insts:      3050000000
1530000206500: system.cpu: Running Insts:      3060000000
1535000206500: system.cpu: Running Insts:      3070000000
1540000206500: system.cpu: Running Insts:      3080000000
1545000206500: system.cpu: Running Insts:      3090000000
1550000206500: system.cpu: Running Insts:      3100000000
1555000206500: system.cpu: Running Insts:      3110000000
1560000206500: system.cpu: Running Insts:      3120000000
1565000206500: system.cpu: Running Insts:      3130000000
1570000206500: system.cpu: Running Insts:      3140000000
1575000206500: system.cpu: Running Insts:      3150000000
1580000206500: system.cpu: Running Insts:      3160000000
1585000206500: system.cpu: Running Insts:      3170000000
1590000206500: system.cpu: Running Insts:      3180000000
1595000206500: system.cpu: Running Insts:      3190000000
1600000206500: system.cpu: Running Insts:      3200000000
1605000206500: system.cpu: Running Insts:      3210000000
1610000206500: system.cpu: Running Insts:      3220000000
1615000206500: system.cpu: Running Insts:      3230000000
1620000206500: system.cpu: Running Insts:      3240000000
1625000206500: system.cpu: Running Insts:      3250000000
1630000206500: system.cpu: Running Insts:      3260000000
1635000206500: system.cpu: Running Insts:      3270000000
1640000206500: system.cpu: Running Insts:      3280000000
1645000206500: system.cpu: Running Insts:      3290000000
1650000206500: system.cpu: Running Insts:      3300000000
1655000206500: system.cpu: Running Insts:      3310000000
1660000206500: system.cpu: Running Insts:      3320000000
1665000206500: system.cpu: Running Insts:      3330000000
1670000206500: system.cpu: Running Insts:      3340000000
1675000206500: system.cpu: Running Insts:      3350000000
1680000206500: system.cpu: Running Insts:      3360000000
1685000206500: system.cpu: Running Insts:      3370000000
1690000206500: system.cpu: Running Insts:      3380000000
1695000206500: system.cpu: Running Insts:      3390000000
1700000206500: system.cpu: Running Insts:      3400000000
1705000206500: system.cpu: Running Insts:      3410000000
1710000206500: system.cpu: Running Insts:      3420000000
1715000206500: system.cpu: Running Insts:      3430000000
1720000206500: system.cpu: Running Insts:      3440000000
1725000206500: system.cpu: Running Insts:      3450000000
1730000206500: system.cpu: Running Insts:      3460000000
1735000206500: system.cpu: Running Insts:      3470000000
1740000206500: system.cpu: Running Insts:      3480000000
1745000206500: system.cpu: Running Insts:      3490000000
1750000206500: system.cpu: Running Insts:      3500000000
1755000206500: system.cpu: Running Insts:      3510000000
1760000206500: system.cpu: Running Insts:      3520000000
1765000206500: system.cpu: Running Insts:      3530000000
1770000206500: system.cpu: Running Insts:      3540000000
1775000206500: system.cpu: Running Insts:      3550000000
1780000206500: system.cpu: Running Insts:      3560000000
1785000206500: system.cpu: Running Insts:      3570000000
1790000206500: system.cpu: Running Insts:      3580000000
1795000206500: system.cpu: Running Insts:      3590000000
1800000206500: system.cpu: Running Insts:      3600000000
1805000206500: system.cpu: Running Insts:      3610000000
1810000206500: system.cpu: Running Insts:      3620000000
1815000206500: system.cpu: Running Insts:      3630000000
1820000206500: system.cpu: Running Insts:      3640000000
1825000206500: system.cpu: Running Insts:      3650000000
1830000206500: system.cpu: Running Insts:      3660000000
1835000206500: system.cpu: Running Insts:      3670000000
1840000206500: system.cpu: Running Insts:      3680000000
1845000206500: system.cpu: Running Insts:      3690000000
1850000206500: system.cpu: Running Insts:      3700000000
1855000206500: system.cpu: Running Insts:      3710000000
1860000206500: system.cpu: Running Insts:      3720000000
1865000206500: system.cpu: Running Insts:      3730000000
1870000206500: system.cpu: Running Insts:      3740000000
1875000206500: system.cpu: Running Insts:      3750000000
1880000206500: system.cpu: Running Insts:      3760000000
1885000206500: system.cpu: Running Insts:      3770000000
1890000206500: system.cpu: Running Insts:      3780000000
1895000206500: system.cpu: Running Insts:      3790000000
1900000206500: system.cpu: Running Insts:      3800000000
1905000206500: system.cpu: Running Insts:      3810000000
1910000206500: system.cpu: Running Insts:      3820000000
1915000206500: system.cpu: Running Insts:      3830000000
1920000206500: system.cpu: Running Insts:      3840000000
1925000206500: system.cpu: Running Insts:      3850000000
1930000206500: system.cpu: Running Insts:      3860000000
1935000206500: system.cpu: Running Insts:      3870000000
1940000206500: system.cpu: Running Insts:      3880000000
1945000206500: system.cpu: Running Insts:      3890000000
1950000206500: system.cpu: Running Insts:      3900000000
1955000206500: system.cpu: Running Insts:      3910000000
1960000206500: system.cpu: Running Insts:      3920000000
1965000206500: system.cpu: Running Insts:      3930000000
1970000206500: system.cpu: Running Insts:      3940000000
1975000206500: system.cpu: Running Insts:      3950000000
1980000206500: system.cpu: Running Insts:      3960000000
1985000206500: system.cpu: Running Insts:      3970000000
1990000206500: system.cpu: Running Insts:      3980000000
1995000206500: system.cpu: Running Insts:      3990000000
2000000206500: system.cpu: Running Insts:      4000000000
2005000206500: system.cpu: Running Insts:      4010000000
2010000206500: system.cpu: Running Insts:      4020000000
2015000206500: system.cpu: Running Insts:      4030000000
2020000206500: system.cpu: Running Insts:      4040000000
2025000206500: system.cpu: Running Insts:      4050000000
2030000206500: system.cpu: Running Insts:      4060000000
2035000206500: system.cpu: Running Insts:      4070000000
2040000206500: system.cpu: Running Insts:      4080000000
2045000206500: system.cpu: Running Insts:      4090000000
2050000206500: system.cpu: Running Insts:      4100000000
2055000206500: system.cpu: Running Insts:      4110000000
2060000206500: system.cpu: Running Insts:      4120000000
2065000206500: system.cpu: Running Insts:      4130000000
2070000206500: system.cpu: Running Insts:      4140000000
2075000206500: system.cpu: Running Insts:      4150000000
2080000206500: system.cpu: Running Insts:      4160000000
2085000206500: system.cpu: Running Insts:      4170000000
2090000206500: system.cpu: Running Insts:      4180000000
2095000206500: system.cpu: Running Insts:      4190000000
2100000206500: system.cpu: Running Insts:      4200000000
2105000206500: system.cpu: Running Insts:      4210000000
2110000206500: system.cpu: Running Insts:      4220000000
2115000206500: system.cpu: Running Insts:      4230000000
2120000206500: system.cpu: Running Insts:      4240000000
2125000206500: system.cpu: Running Insts:      4250000000
2130000206500: system.cpu: Running Insts:      4260000000
2135000206500: system.cpu: Running Insts:      4270000000
2140000206500: system.cpu: Running Insts:      4280000000
2145000206500: system.cpu: Running Insts:      4290000000
2150000206500: system.cpu: Running Insts:      4300000000
2155000206500: system.cpu: Running Insts:      4310000000
2160000206500: system.cpu: Running Insts:      4320000000
2165000206500: system.cpu: Running Insts:      4330000000
2170000206500: system.cpu: Running Insts:      4340000000
2175000206500: system.cpu: Running Insts:      4350000000
2180000206500: system.cpu: Running Insts:      4360000000
2185000206500: system.cpu: Running Insts:      4370000000
2190000206500: system.cpu: Running Insts:      4380000000
2195000206500: system.cpu: Running Insts:      4390000000
2200000206500: system.cpu: Running Insts:      4400000000
2205000206500: system.cpu: Running Insts:      4410000000
2210000206500: system.cpu: Running Insts:      4420000000
2215000206500: system.cpu: Running Insts:      4430000000
2220000206500: system.cpu: Running Insts:      4440000000
2225000206500: system.cpu: Running Insts:      4450000000
2230000206500: system.cpu: Running Insts:      4460000000
2235000206500: system.cpu: Running Insts:      4470000000
2240000206500: system.cpu: Running Insts:      4480000000
2245000206500: system.cpu: Running Insts:      4490000000
2250000206500: system.cpu: Running Insts:      4500000000
2255000206500: system.cpu: Running Insts:      4510000000
2260000206500: system.cpu: Running Insts:      4520000000
2265000206500: system.cpu: Running Insts:      4530000000
2270000206500: system.cpu: Running Insts:      4540000000
2275000206500: system.cpu: Running Insts:      4550000000
2280000206500: system.cpu: Running Insts:      4560000000
2285000206500: system.cpu: Running Insts:      4570000000
2290000206500: system.cpu: Running Insts:      4580000000
2295000206500: system.cpu: Running Insts:      4590000000
2300000206500: system.cpu: Running Insts:      4600000000
2305000206500: system.cpu: Running Insts:      4610000000
2310000206500: system.cpu: Running Insts:      4620000000
2315000206500: system.cpu: Running Insts:      4630000000
2320000206500: system.cpu: Running Insts:      4640000000
2325000206500: system.cpu: Running Insts:      4650000000
2330000206500: system.cpu: Running Insts:      4660000000
2335000206500: system.cpu: Running Insts:      4670000000
2340000206500: system.cpu: Running Insts:      4680000000
2345000206500: system.cpu: Running Insts:      4690000000
2350000206500: system.cpu: Running Insts:      4700000000
2355000206500: system.cpu: Running Insts:      4710000000
2360000206500: system.cpu: Running Insts:      4720000000
2365000206500: system.cpu: Running Insts:      4730000000
2370000206500: system.cpu: Running Insts:      4740000000
2375000206500: system.cpu: Running Insts:      4750000000
2380000206500: system.cpu: Running Insts:      4760000000
2385000206500: system.cpu: Running Insts:      4770000000
2390000206500: system.cpu: Running Insts:      4780000000
2395000206500: system.cpu: Running Insts:      4790000000
2400000206500: system.cpu: Running Insts:      4800000000
2405000206500: system.cpu: Running Insts:      4810000000
2410000206500: system.cpu: Running Insts:      4820000000
2415000206500: system.cpu: Running Insts:      4830000000
2420000206500: system.cpu: Running Insts:      4840000000
2425000206500: system.cpu: Running Insts:      4850000000
2430000206500: system.cpu: Running Insts:      4860000000
2435000206500: system.cpu: Running Insts:      4870000000
2440000206500: system.cpu: Running Insts:      4880000000
2445000206500: system.cpu: Running Insts:      4890000000
2450000206500: system.cpu: Running Insts:      4900000000
2455000206500: system.cpu: Running Insts:      4910000000
2460000206500: system.cpu: Running Insts:      4920000000
2465000206500: system.cpu: Running Insts:      4930000000
2470000206500: system.cpu: Running Insts:      4940000000
2475000206500: system.cpu: Running Insts:      4950000000
2480000206500: system.cpu: Running Insts:      4960000000
2485000206500: system.cpu: Running Insts:      4970000000
2490000206500: system.cpu: Running Insts:      4980000000
2495000206500: system.cpu: Running Insts:      4990000000
2500000206500: system.cpu: Running Insts:      5000000000
2505000206500: system.cpu: Running Insts:      5010000000
2510000206500: system.cpu: Running Insts:      5020000000
2515000206500: system.cpu: Running Insts:      5030000000
2520000206500: system.cpu: Running Insts:      5040000000
2525000206500: system.cpu: Running Insts:      5050000000
2530000206500: system.cpu: Running Insts:      5060000000
2535000206500: system.cpu: Running Insts:      5070000000
2540000206500: system.cpu: Running Insts:      5080000000
2545000206500: system.cpu: Running Insts:      5090000000
2550000206500: system.cpu: Running Insts:      5100000000
2555000206500: system.cpu: Running Insts:      5110000000
2560000206500: system.cpu: Running Insts:      5120000000
2565000206500: system.cpu: Running Insts:      5130000000
2570000206500: system.cpu: Running Insts:      5140000000
2575000206500: system.cpu: Running Insts:      5150000000
2580000206500: system.cpu: Running Insts:      5160000000
2585000206500: system.cpu: Running Insts:      5170000000
2590000206500: system.cpu: Running Insts:      5180000000
2595000206500: system.cpu: Running Insts:      5190000000
2600000206500: system.cpu: Running Insts:      5200000000
2605000206500: system.cpu: Running Insts:      5210000000
2610000206500: system.cpu: Running Insts:      5220000000
2615000206500: system.cpu: Running Insts:      5230000000
2620000206500: system.cpu: Running Insts:      5240000000
2625000206500: system.cpu: Running Insts:      5250000000
2630000206500: system.cpu: Running Insts:      5260000000
2635000206500: system.cpu: Running Insts:      5270000000
2640000206500: system.cpu: Running Insts:      5280000000
2645000206500: system.cpu: Running Insts:      5290000000
2650000206500: system.cpu: Running Insts:      5300000000
2655000206500: system.cpu: Running Insts:      5310000000
2660000206500: system.cpu: Running Insts:      5320000000
2665000206500: system.cpu: Running Insts:      5330000000
2670000206500: system.cpu: Running Insts:      5340000000
2675000206500: system.cpu: Running Insts:      5350000000
2680000206500: system.cpu: Running Insts:      5360000000
2685000206500: system.cpu: Running Insts:      5370000000
2690000206500: system.cpu: Running Insts:      5380000000
2695000206500: system.cpu: Running Insts:      5390000000
2700000206500: system.cpu: Running Insts:      5400000000
2705000206500: system.cpu: Running Insts:      5410000000
2710000206500: system.cpu: Running Insts:      5420000000
2715000206500: system.cpu: Running Insts:      5430000000
2720000206500: system.cpu: Running Insts:      5440000000
2725000206500: system.cpu: Running Insts:      5450000000
2730000206500: system.cpu: Running Insts:      5460000000
2735000206500: system.cpu: Running Insts:      5470000000
2740000206500: system.cpu: Running Insts:      5480000000
2745000206500: system.cpu: Running Insts:      5490000000
2750000206500: system.cpu: Running Insts:      5500000000
2755000206500: system.cpu: Running Insts:      5510000000
2760000206500: system.cpu: Running Insts:      5520000000
2765000206500: system.cpu: Running Insts:      5530000000
2770000206500: system.cpu: Running Insts:      5540000000
2775000206500: system.cpu: Running Insts:      5550000000
2780000206500: system.cpu: Running Insts:      5560000000
2785000206500: system.cpu: Running Insts:      5570000000
2790000206500: system.cpu: Running Insts:      5580000000
2795000206500: system.cpu: Running Insts:      5590000000
2800000206500: system.cpu: Running Insts:      5600000000
2805000206500: system.cpu: Running Insts:      5610000000
2810000206500: system.cpu: Running Insts:      5620000000
2815000206500: system.cpu: Running Insts:      5630000000
2820000206500: system.cpu: Running Insts:      5640000000
2825000206500: system.cpu: Running Insts:      5650000000
2830000206500: system.cpu: Running Insts:      5660000000
2835000206500: system.cpu: Running Insts:      5670000000
2840000206500: system.cpu: Running Insts:      5680000000
2845000206500: system.cpu: Running Insts:      5690000000
2850000206500: system.cpu: Running Insts:      5700000000
2855000206500: system.cpu: Running Insts:      5710000000
2860000206500: system.cpu: Running Insts:      5720000000
2865000206500: system.cpu: Running Insts:      5730000000
2870000206500: system.cpu: Running Insts:      5740000000
2875000206500: system.cpu: Running Insts:      5750000000
2880000206500: system.cpu: Running Insts:      5760000000
2885000206500: system.cpu: Running Insts:      5770000000
2890000206500: system.cpu: Running Insts:      5780000000
2895000206500: system.cpu: Running Insts:      5790000000
2900000206500: system.cpu: Running Insts:      5800000000
2905000206500: system.cpu: Running Insts:      5810000000
2910000206500: system.cpu: Running Insts:      5820000000
2915000206500: system.cpu: Running Insts:      5830000000
2920000206500: system.cpu: Running Insts:      5840000000
2925000206500: system.cpu: Running Insts:      5850000000
2930000206500: system.cpu: Running Insts:      5860000000
2935000206500: system.cpu: Running Insts:      5870000000
2940000206500: system.cpu: Running Insts:      5880000000
2945000206500: system.cpu: Running Insts:      5890000000
2950000206500: system.cpu: Running Insts:      5900000000
2955000206500: system.cpu: Running Insts:      5910000000
2960000206500: system.cpu: Running Insts:      5920000000
2965000206500: system.cpu: Running Insts:      5930000000
2970000206500: system.cpu: Running Insts:      5940000000
2975000206500: system.cpu: Running Insts:      5950000000
2980000206500: system.cpu: Running Insts:      5960000000
2985000206500: system.cpu: Running Insts:      5970000000
2990000206500: system.cpu: Running Insts:      5980000000
2995000206500: system.cpu: Running Insts:      5990000000
3000000206500: system.cpu: Running Insts:      6000000000
3005000206500: system.cpu: Running Insts:      6010000000
3010000206500: system.cpu: Running Insts:      6020000000
3015000206500: system.cpu: Running Insts:      6030000000
3020000206500: system.cpu: Running Insts:      6040000000
3025000206500: system.cpu: Running Insts:      6050000000
3030000206500: system.cpu: Running Insts:      6060000000
3035000206500: system.cpu: Running Insts:      6070000000
3040000206500: system.cpu: Running Insts:      6080000000
3045000206500: system.cpu: Running Insts:      6090000000
3050000206500: system.cpu: Running Insts:      6100000000
3055000206500: system.cpu: Running Insts:      6110000000
3060000206500: system.cpu: Running Insts:      6120000000
3065000206500: system.cpu: Running Insts:      6130000000
3070000206500: system.cpu: Running Insts:      6140000000
3075000206500: system.cpu: Running Insts:      6150000000
3080000206500: system.cpu: Running Insts:      6160000000
3085000206500: system.cpu: Running Insts:      6170000000
3090000206500: system.cpu: Running Insts:      6180000000
3095000206500: system.cpu: Running Insts:      6190000000
3100000206500: system.cpu: Running Insts:      6200000000
3105000206500: system.cpu: Running Insts:      6210000000
3110000206500: system.cpu: Running Insts:      6220000000
3115000206500: system.cpu: Running Insts:      6230000000
3120000206500: system.cpu: Running Insts:      6240000000
3125000206500: system.cpu: Running Insts:      6250000000
3130000206500: system.cpu: Running Insts:      6260000000
3135000206500: system.cpu: Running Insts:      6270000000
3140000206500: system.cpu: Running Insts:      6280000000
3145000206500: system.cpu: Running Insts:      6290000000
3150000206500: system.cpu: Running Insts:      6300000000
3155000206500: system.cpu: Running Insts:      6310000000
3160000206500: system.cpu: Running Insts:      6320000000
3165000206500: system.cpu: Running Insts:      6330000000
3170000206500: system.cpu: Running Insts:      6340000000
3175000206500: system.cpu: Running Insts:      6350000000
3180000206500: system.cpu: Running Insts:      6360000000
3185000206500: system.cpu: Running Insts:      6370000000
3190000206500: system.cpu: Running Insts:      6380000000
3195000206500: system.cpu: Running Insts:      6390000000
3200000206500: system.cpu: Running Insts:      6400000000
3205000206500: system.cpu: Running Insts:      6410000000
3210000206500: system.cpu: Running Insts:      6420000000
3215000206500: system.cpu: Running Insts:      6430000000
3220000206500: system.cpu: Running Insts:      6440000000
3225000206500: system.cpu: Running Insts:      6450000000
3230000206500: system.cpu: Running Insts:      6460000000
3235000206500: system.cpu: Running Insts:      6470000000
3240000206500: system.cpu: Running Insts:      6480000000
3245000206500: system.cpu: Running Insts:      6490000000
3250000206500: system.cpu: Running Insts:      6500000000
3255000206500: system.cpu: Running Insts:      6510000000
3260000206500: system.cpu: Running Insts:      6520000000
3265000206500: system.cpu: Running Insts:      6530000000
3270000206500: system.cpu: Running Insts:      6540000000
3275000206500: system.cpu: Running Insts:      6550000000
3280000206500: system.cpu: Running Insts:      6560000000
3285000206500: system.cpu: Running Insts:      6570000000
3290000206500: system.cpu: Running Insts:      6580000000
3295000206500: system.cpu: Running Insts:      6590000000
3300000206500: system.cpu: Running Insts:      6600000000
3305000206500: system.cpu: Running Insts:      6610000000
3310000206500: system.cpu: Running Insts:      6620000000
3315000206500: system.cpu: Running Insts:      6630000000
3320000206500: system.cpu: Running Insts:      6640000000
3325000206500: system.cpu: Running Insts:      6650000000
3330000206500: system.cpu: Running Insts:      6660000000
3335000206500: system.cpu: Running Insts:      6670000000
3340000206500: system.cpu: Running Insts:      6680000000
3345000206500: system.cpu: Running Insts:      6690000000
3350000206500: system.cpu: Running Insts:      6700000000
3355000206500: system.cpu: Running Insts:      6710000000
3360000206500: system.cpu: Running Insts:      6720000000
3365000206500: system.cpu: Running Insts:      6730000000
3370000206500: system.cpu: Running Insts:      6740000000
3375000206500: system.cpu: Running Insts:      6750000000
3380000206500: system.cpu: Running Insts:      6760000000
3385000206500: system.cpu: Running Insts:      6770000000
3390000206500: system.cpu: Running Insts:      6780000000
3395000206500: system.cpu: Running Insts:      6790000000
3400000206500: system.cpu: Running Insts:      6800000000
3405000206500: system.cpu: Running Insts:      6810000000
3410000206500: system.cpu: Running Insts:      6820000000
3415000206500: system.cpu: Running Insts:      6830000000
3420000206500: system.cpu: Running Insts:      6840000000
3425000206500: system.cpu: Running Insts:      6850000000
3430000206500: system.cpu: Running Insts:      6860000000
3435000206500: system.cpu: Running Insts:      6870000000
3440000206500: system.cpu: Running Insts:      6880000000
3445000206500: system.cpu: Running Insts:      6890000000
3450000206500: system.cpu: Running Insts:      6900000000
3455000206500: system.cpu: Running Insts:      6910000000
3460000206500: system.cpu: Running Insts:      6920000000
3465000206500: system.cpu: Running Insts:      6930000000
3470000206500: system.cpu: Running Insts:      6940000000
3475000206500: system.cpu: Running Insts:      6950000000
3480000206500: system.cpu: Running Insts:      6960000000
3485000206500: system.cpu: Running Insts:      6970000000
3490000206500: system.cpu: Running Insts:      6980000000
3495000206500: system.cpu: Running Insts:      6990000000
3500000206500: system.cpu: Running Insts:      7000000000
3505000206500: system.cpu: Running Insts:      7010000000
3510000206500: system.cpu: Running Insts:      7020000000
3515000206500: system.cpu: Running Insts:      7030000000
3520000206500: system.cpu: Running Insts:      7040000000
3525000206500: system.cpu: Running Insts:      7050000000
3530000206500: system.cpu: Running Insts:      7060000000
3535000206500: system.cpu: Running Insts:      7070000000
3540000206500: system.cpu: Running Insts:      7080000000
3545000206500: system.cpu: Running Insts:      7090000000
3550000206500: system.cpu: Running Insts:      7100000000
3555000206500: system.cpu: Running Insts:      7110000000
3560000206500: system.cpu: Running Insts:      7120000000
3565000206500: system.cpu: Running Insts:      7130000000
3570000206500: system.cpu: Running Insts:      7140000000
3575000206500: system.cpu: Running Insts:      7150000000
3580000206500: system.cpu: Running Insts:      7160000000
3585000206500: system.cpu: Running Insts:      7170000000
3590000206500: system.cpu: Running Insts:      7180000000
3595000206500: system.cpu: Running Insts:      7190000000
3600000206500: system.cpu: Running Insts:      7200000000
3605000206500: system.cpu: Running Insts:      7210000000
3610000206500: system.cpu: Running Insts:      7220000000
3615000206500: system.cpu: Running Insts:      7230000000
3620000206500: system.cpu: Running Insts:      7240000000
3625000206500: system.cpu: Running Insts:      7250000000
3630000206500: system.cpu: Running Insts:      7260000000
3635000206500: system.cpu: Running Insts:      7270000000
3640000206500: system.cpu: Running Insts:      7280000000
3645000206500: system.cpu: Running Insts:      7290000000
3650000206500: system.cpu: Running Insts:      7300000000
3655000206500: system.cpu: Running Insts:      7310000000
3660000206500: system.cpu: Running Insts:      7320000000
3665000206500: system.cpu: Running Insts:      7330000000
3670000206500: system.cpu: Running Insts:      7340000000
3675000206500: system.cpu: Running Insts:      7350000000
3680000206500: system.cpu: Running Insts:      7360000000
3685000206500: system.cpu: Running Insts:      7370000000
3690000206500: system.cpu: Running Insts:      7380000000
3695000206500: system.cpu: Running Insts:      7390000000
3700000206500: system.cpu: Running Insts:      7400000000
3705000206500: system.cpu: Running Insts:      7410000000
3710000206500: system.cpu: Running Insts:      7420000000
3715000206500: system.cpu: Running Insts:      7430000000
3720000206500: system.cpu: Running Insts:      7440000000
3725000206500: system.cpu: Running Insts:      7450000000
3730000206500: system.cpu: Running Insts:      7460000000
3735000206500: system.cpu: Running Insts:      7470000000
3740000206500: system.cpu: Running Insts:      7480000000
3745000206500: system.cpu: Running Insts:      7490000000
3750000206500: system.cpu: Running Insts:      7500000000
3755000206500: system.cpu: Running Insts:      7510000000
3760000206500: system.cpu: Running Insts:      7520000000
3765000206500: system.cpu: Running Insts:      7530000000
3770000206500: system.cpu: Running Insts:      7540000000
3775000206500: system.cpu: Running Insts:      7550000000
3780000206500: system.cpu: Running Insts:      7560000000
3785000206500: system.cpu: Running Insts:      7570000000
3790000206500: system.cpu: Running Insts:      7580000000
3795000206500: system.cpu: Running Insts:      7590000000
3800000206500: system.cpu: Running Insts:      7600000000
3805000206500: system.cpu: Running Insts:      7610000000
3810000206500: system.cpu: Running Insts:      7620000000
3815000206500: system.cpu: Running Insts:      7630000000
3820000206500: system.cpu: Running Insts:      7640000000
3825000206500: system.cpu: Running Insts:      7650000000
3830000206500: system.cpu: Running Insts:      7660000000
3835000206500: system.cpu: Running Insts:      7670000000
3840000206500: system.cpu: Running Insts:      7680000000
3845000206500: system.cpu: Running Insts:      7690000000
3850000206500: system.cpu: Running Insts:      7700000000
3855000206500: system.cpu: Running Insts:      7710000000
3860000206500: system.cpu: Running Insts:      7720000000
3865000206500: system.cpu: Running Insts:      7730000000
3870000206500: system.cpu: Running Insts:      7740000000
3875000206500: system.cpu: Running Insts:      7750000000
3880000206500: system.cpu: Running Insts:      7760000000
3885000206500: system.cpu: Running Insts:      7770000000
3890000206500: system.cpu: Running Insts:      7780000000
3895000206500: system.cpu: Running Insts:      7790000000
3900000206500: system.cpu: Running Insts:      7800000000
3905000206500: system.cpu: Running Insts:      7810000000
3910000206500: system.cpu: Running Insts:      7820000000
3915000206500: system.cpu: Running Insts:      7830000000
3920000206500: system.cpu: Running Insts:      7840000000
3925000206500: system.cpu: Running Insts:      7850000000
3930000206500: system.cpu: Running Insts:      7860000000
3935000206500: system.cpu: Running Insts:      7870000000
3940000206500: system.cpu: Running Insts:      7880000000
3945000206500: system.cpu: Running Insts:      7890000000
3950000206500: system.cpu: Running Insts:      7900000000
3955000206500: system.cpu: Running Insts:      7910000000
3960000206500: system.cpu: Running Insts:      7920000000
3965000206500: system.cpu: Running Insts:      7930000000
3970000206500: system.cpu: Running Insts:      7940000000
3975000206500: system.cpu: Running Insts:      7950000000
3980000206500: system.cpu: Running Insts:      7960000000
3985000206500: system.cpu: Running Insts:      7970000000
3990000206500: system.cpu: Running Insts:      7980000000
3995000206500: system.cpu: Running Insts:      7990000000
4000000206500: system.cpu: Running Insts:      8000000000
4005000206500: system.cpu: Running Insts:      8010000000
4010000206500: system.cpu: Running Insts:      8020000000
4015000206500: system.cpu: Running Insts:      8030000000
4020000206500: system.cpu: Running Insts:      8040000000
4025000206500: system.cpu: Running Insts:      8050000000
4030000206500: system.cpu: Running Insts:      8060000000
4035000206500: system.cpu: Running Insts:      8070000000
4040000206500: system.cpu: Running Insts:      8080000000
4045000206500: system.cpu: Running Insts:      8090000000
4050000206500: system.cpu: Running Insts:      8100000000
4055000206500: system.cpu: Running Insts:      8110000000
4060000206500: system.cpu: Running Insts:      8120000000
4065000206500: system.cpu: Running Insts:      8130000000
4070000206500: system.cpu: Running Insts:      8140000000
4075000206500: system.cpu: Running Insts:      8150000000
4080000206500: system.cpu: Running Insts:      8160000000
4085000206500: system.cpu: Running Insts:      8170000000
4090000206500: system.cpu: Running Insts:      8180000000
4095000206500: system.cpu: Running Insts:      8190000000
4100000206500: system.cpu: Running Insts:      8200000000
4105000206500: system.cpu: Running Insts:      8210000000
4110000206500: system.cpu: Running Insts:      8220000000
4115000206500: system.cpu: Running Insts:      8230000000
4120000206500: system.cpu: Running Insts:      8240000000
4125000206500: system.cpu: Running Insts:      8250000000
4130000206500: system.cpu: Running Insts:      8260000000
4135000206500: system.cpu: Running Insts:      8270000000
4140000206500: system.cpu: Running Insts:      8280000000
4145000206500: system.cpu: Running Insts:      8290000000
4150000206500: system.cpu: Running Insts:      8300000000
4155000206500: system.cpu: Running Insts:      8310000000
4160000206500: system.cpu: Running Insts:      8320000000
4165000206500: system.cpu: Running Insts:      8330000000
4170000206500: system.cpu: Running Insts:      8340000000
4175000206500: system.cpu: Running Insts:      8350000000
4180000206500: system.cpu: Running Insts:      8360000000
4185000206500: system.cpu: Running Insts:      8370000000
4190000206500: system.cpu: Running Insts:      8380000000
4195000206500: system.cpu: Running Insts:      8390000000
4200000206500: system.cpu: Running Insts:      8400000000
4205000206500: system.cpu: Running Insts:      8410000000
4210000206500: system.cpu: Running Insts:      8420000000
4215000206500: system.cpu: Running Insts:      8430000000
4220000206500: system.cpu: Running Insts:      8440000000
4225000206500: system.cpu: Running Insts:      8450000000
4230000206500: system.cpu: Running Insts:      8460000000
4235000206500: system.cpu: Running Insts:      8470000000
4240000206500: system.cpu: Running Insts:      8480000000
4245000206500: system.cpu: Running Insts:      8490000000
4250000206500: system.cpu: Running Insts:      8500000000
4255000206500: system.cpu: Running Insts:      8510000000
4260000206500: system.cpu: Running Insts:      8520000000
4265000206500: system.cpu: Running Insts:      8530000000
4270000206500: system.cpu: Running Insts:      8540000000
4275000206500: system.cpu: Running Insts:      8550000000
4280000206500: system.cpu: Running Insts:      8560000000
4285000206500: system.cpu: Running Insts:      8570000000
4290000206500: system.cpu: Running Insts:      8580000000
4295000206500: system.cpu: Running Insts:      8590000000
4300000206500: system.cpu: Running Insts:      8600000000
4305000206500: system.cpu: Running Insts:      8610000000
4310000206500: system.cpu: Running Insts:      8620000000
4315000206500: system.cpu: Running Insts:      8630000000
4320000206500: system.cpu: Running Insts:      8640000000
4325000206500: system.cpu: Running Insts:      8650000000
4330000206500: system.cpu: Running Insts:      8660000000
4335000206500: system.cpu: Running Insts:      8670000000
4340000206500: system.cpu: Running Insts:      8680000000
4345000206500: system.cpu: Running Insts:      8690000000
4350000206500: system.cpu: Running Insts:      8700000000
4355000206500: system.cpu: Running Insts:      8710000000
4360000206500: system.cpu: Running Insts:      8720000000
4365000206500: system.cpu: Running Insts:      8730000000
4370000206500: system.cpu: Running Insts:      8740000000
4375000206500: system.cpu: Running Insts:      8750000000
4380000206500: system.cpu: Running Insts:      8760000000
4385000206500: system.cpu: Running Insts:      8770000000
4390000206500: system.cpu: Running Insts:      8780000000
4395000206500: system.cpu: Running Insts:      8790000000
4400000206500: system.cpu: Running Insts:      8800000000
4405000206500: system.cpu: Running Insts:      8810000000
4410000206500: system.cpu: Running Insts:      8820000000
4415000206500: system.cpu: Running Insts:      8830000000
4420000206500: system.cpu: Running Insts:      8840000000
4425000206500: system.cpu: Running Insts:      8850000000
4430000206500: system.cpu: Running Insts:      8860000000
4435000206500: system.cpu: Running Insts:      8870000000
4440000206500: system.cpu: Running Insts:      8880000000
4445000206500: system.cpu: Running Insts:      8890000000
4450000206500: system.cpu: Running Insts:      8900000000
4455000206500: system.cpu: Running Insts:      8910000000
4460000206500: system.cpu: Running Insts:      8920000000
4465000206500: system.cpu: Running Insts:      8930000000
4470000206500: system.cpu: Running Insts:      8940000000
4475000206500: system.cpu: Running Insts:      8950000000
4480000206500: system.cpu: Running Insts:      8960000000
4485000206500: system.cpu: Running Insts:      8970000000
4490000206500: system.cpu: Running Insts:      8980000000
4495000206500: system.cpu: Running Insts:      8990000000
4500000206500: system.cpu: Running Insts:      9000000000
4505000206500: system.cpu: Running Insts:      9010000000
4510000206500: system.cpu: Running Insts:      9020000000
4515000206500: system.cpu: Running Insts:      9030000000
4520000206500: system.cpu: Running Insts:      9040000000
4525000206500: system.cpu: Running Insts:      9050000000
4530000206500: system.cpu: Running Insts:      9060000000
4535000206500: system.cpu: Running Insts:      9070000000
4540000206500: system.cpu: Running Insts:      9080000000
4545000206500: system.cpu: Running Insts:      9090000000
4550000206500: system.cpu: Running Insts:      9100000000
4555000206500: system.cpu: Running Insts:      9110000000
4560000206500: system.cpu: Running Insts:      9120000000
4565000206500: system.cpu: Running Insts:      9130000000
4570000206500: system.cpu: Running Insts:      9140000000
4575000206500: system.cpu: Running Insts:      9150000000
4580000206500: system.cpu: Running Insts:      9160000000
4585000206500: system.cpu: Running Insts:      9170000000
4590000206500: system.cpu: Running Insts:      9180000000
4595000206500: system.cpu: Running Insts:      9190000000
4600000206500: system.cpu: Running Insts:      9200000000
4605000206500: system.cpu: Running Insts:      9210000000
4610000206500: system.cpu: Running Insts:      9220000000
4615000206500: system.cpu: Running Insts:      9230000000
4620000206500: system.cpu: Running Insts:      9240000000
4625000206500: system.cpu: Running Insts:      9250000000
4630000206500: system.cpu: Running Insts:      9260000000
4635000206500: system.cpu: Running Insts:      9270000000
4640000206500: system.cpu: Running Insts:      9280000000
4645000206500: system.cpu: Running Insts:      9290000000
4650000206500: system.cpu: Running Insts:      9300000000
4655000206500: system.cpu: Running Insts:      9310000000
4660000206500: system.cpu: Running Insts:      9320000000
4665000206500: system.cpu: Running Insts:      9330000000
4670000206500: system.cpu: Running Insts:      9340000000
4675000206500: system.cpu: Running Insts:      9350000000
4680000206500: system.cpu: Running Insts:      9360000000
4685000206500: system.cpu: Running Insts:      9370000000
4690000206500: system.cpu: Running Insts:      9380000000
4695000206500: system.cpu: Running Insts:      9390000000
4700000206500: system.cpu: Running Insts:      9400000000
4705000206500: system.cpu: Running Insts:      9410000000
4710000206500: system.cpu: Running Insts:      9420000000
4715000206500: system.cpu: Running Insts:      9430000000
4720000206500: system.cpu: Running Insts:      9440000000
4725000206500: system.cpu: Running Insts:      9450000000
4730000206500: system.cpu: Running Insts:      9460000000
4735000206500: system.cpu: Running Insts:      9470000000
4740000206500: system.cpu: Running Insts:      9480000000
4745000206500: system.cpu: Running Insts:      9490000000
4750000206500: system.cpu: Running Insts:      9500000000
4755000206500: system.cpu: Running Insts:      9510000000
4760000206500: system.cpu: Running Insts:      9520000000
4765000206500: system.cpu: Running Insts:      9530000000
4770000206500: system.cpu: Running Insts:      9540000000
4775000206500: system.cpu: Running Insts:      9550000000
4780000206500: system.cpu: Running Insts:      9560000000
4785000206500: system.cpu: Running Insts:      9570000000
4790000206500: system.cpu: Running Insts:      9580000000
4795000206500: system.cpu: Running Insts:      9590000000
4800000206500: system.cpu: Running Insts:      9600000000
4805000206500: system.cpu: Running Insts:      9610000000
4810000206500: system.cpu: Running Insts:      9620000000
4815000206500: system.cpu: Running Insts:      9630000000
4820000206500: system.cpu: Running Insts:      9640000000
4825000206500: system.cpu: Running Insts:      9650000000
4830000206500: system.cpu: Running Insts:      9660000000
4835000206500: system.cpu: Running Insts:      9670000000
4840000206500: system.cpu: Running Insts:      9680000000
4845000206500: system.cpu: Running Insts:      9690000000
4850000206500: system.cpu: Running Insts:      9700000000
4855000206500: system.cpu: Running Insts:      9710000000
4860000206500: system.cpu: Running Insts:      9720000000
4865000206500: system.cpu: Running Insts:      9730000000
4870000206500: system.cpu: Running Insts:      9740000000
4875000206500: system.cpu: Running Insts:      9750000000
4880000206500: system.cpu: Running Insts:      9760000000
4885000206500: system.cpu: Running Insts:      9770000000
4890000206500: system.cpu: Running Insts:      9780000000
4895000206500: system.cpu: Running Insts:      9790000000
4900000206500: system.cpu: Running Insts:      9800000000
4905000206500: system.cpu: Running Insts:      9810000000
4910000206500: system.cpu: Running Insts:      9820000000
4915000206500: system.cpu: Running Insts:      9830000000
4920000206500: system.cpu: Running Insts:      9840000000
4925000206500: system.cpu: Running Insts:      9850000000
4930000206500: system.cpu: Running Insts:      9860000000
4935000206500: system.cpu: Running Insts:      9870000000
4940000206500: system.cpu: Running Insts:      9880000000
4945000206500: system.cpu: Running Insts:      9890000000
4950000206500: system.cpu: Running Insts:      9900000000
4955000206500: system.cpu: Running Insts:      9910000000
4960000206500: system.cpu: Running Insts:      9920000000
4965000206500: system.cpu: Running Insts:      9930000000
4970000206500: system.cpu: Running Insts:      9940000000
4975000206500: system.cpu: Running Insts:      9950000000
4980000206500: system.cpu: Running Insts:      9960000000
4985000206500: system.cpu: Running Insts:      9970000000
4990000206500: system.cpu: Running Insts:      9980000000
4995000206500: system.cpu: Running Insts:      9990000000
5000000206500: system.cpu: Running Insts:     10000000000
5005000206500: system.cpu: Running Insts:     10010000000
5010000206500: system.cpu: Running Insts:     10020000000
5015000206500: system.cpu: Running Insts:     10030000000
5020000206500: system.cpu: Running Insts:     10040000000
5025000206500: system.cpu: Running Insts:     10050000000
5030000206500: system.cpu: Running Insts:     10060000000
5035000206500: system.cpu: Running Insts:     10070000000
5040000206500: system.cpu: Running Insts:     10080000000
5045000206500: system.cpu: Running Insts:     10090000000
5050000206500: system.cpu: Running Insts:     10100000000
5055000206500: system.cpu: Running Insts:     10110000000
5060000206500: system.cpu: Running Insts:     10120000000
5065000206500: system.cpu: Running Insts:     10130000000
5070000206500: system.cpu: Running Insts:     10140000000
5075000206500: system.cpu: Running Insts:     10150000000
5080000206500: system.cpu: Running Insts:     10160000000
5085000206500: system.cpu: Running Insts:     10170000000
5090000206500: system.cpu: Running Insts:     10180000000
5095000206500: system.cpu: Running Insts:     10190000000
5100000206500: system.cpu: Running Insts:     10200000000
5105000206500: system.cpu: Running Insts:     10210000000
5110000206500: system.cpu: Running Insts:     10220000000
5115000206500: system.cpu: Running Insts:     10230000000
5120000206500: system.cpu: Running Insts:     10240000000
5125000206500: system.cpu: Running Insts:     10250000000
5130000206500: system.cpu: Running Insts:     10260000000
5135000206500: system.cpu: Running Insts:     10270000000
5140000206500: system.cpu: Running Insts:     10280000000
5145000206500: system.cpu: Running Insts:     10290000000
5150000206500: system.cpu: Running Insts:     10300000000
5155000206500: system.cpu: Running Insts:     10310000000
5160000206500: system.cpu: Running Insts:     10320000000
5165000206500: system.cpu: Running Insts:     10330000000
5170000206500: system.cpu: Running Insts:     10340000000
5175000206500: system.cpu: Running Insts:     10350000000
5180000206500: system.cpu: Running Insts:     10360000000
5185000206500: system.cpu: Running Insts:     10370000000
5190000206500: system.cpu: Running Insts:     10380000000
5195000206500: system.cpu: Running Insts:     10390000000
5200000206500: system.cpu: Running Insts:     10400000000
5205000206500: system.cpu: Running Insts:     10410000000
5210000206500: system.cpu: Running Insts:     10420000000
5215000206500: system.cpu: Running Insts:     10430000000
5220000206500: system.cpu: Running Insts:     10440000000
5225000206500: system.cpu: Running Insts:     10450000000
5230000206500: system.cpu: Running Insts:     10460000000
5235000206500: system.cpu: Running Insts:     10470000000
5240000206500: system.cpu: Running Insts:     10480000000
5245000206500: system.cpu: Running Insts:     10490000000
5250000206500: system.cpu: Running Insts:     10500000000
5255000206500: system.cpu: Running Insts:     10510000000
5260000206500: system.cpu: Running Insts:     10520000000
5265000206500: system.cpu: Running Insts:     10530000000
5270000206500: system.cpu: Running Insts:     10540000000
5275000206500: system.cpu: Running Insts:     10550000000
5280000206500: system.cpu: Running Insts:     10560000000
5285000206500: system.cpu: Running Insts:     10570000000
5290000206500: system.cpu: Running Insts:     10580000000
5295000206500: system.cpu: Running Insts:     10590000000
5300000206500: system.cpu: Running Insts:     10600000000
5305000206500: system.cpu: Running Insts:     10610000000
5310000206500: system.cpu: Running Insts:     10620000000
5315000206500: system.cpu: Running Insts:     10630000000
5320000206500: system.cpu: Running Insts:     10640000000
5325000206500: system.cpu: Running Insts:     10650000000
5330000206500: system.cpu: Running Insts:     10660000000
5335000206500: system.cpu: Running Insts:     10670000000
5340000206500: system.cpu: Running Insts:     10680000000
5345000206500: system.cpu: Running Insts:     10690000000
5350000206500: system.cpu: Running Insts:     10700000000
5355000206500: system.cpu: Running Insts:     10710000000
5360000206500: system.cpu: Running Insts:     10720000000
5365000206500: system.cpu: Running Insts:     10730000000
5370000206500: system.cpu: Running Insts:     10740000000
5375000206500: system.cpu: Running Insts:     10750000000
5380000206500: system.cpu: Running Insts:     10760000000
5385000206500: system.cpu: Running Insts:     10770000000
5390000206500: system.cpu: Running Insts:     10780000000
5395000206500: system.cpu: Running Insts:     10790000000
5400000206500: system.cpu: Running Insts:     10800000000
5405000206500: system.cpu: Running Insts:     10810000000
5410000206500: system.cpu: Running Insts:     10820000000
5415000206500: system.cpu: Running Insts:     10830000000
5420000206500: system.cpu: Running Insts:     10840000000
5425000206500: system.cpu: Running Insts:     10850000000
5430000206500: system.cpu: Running Insts:     10860000000
5435000206500: system.cpu: Running Insts:     10870000000
5440000206500: system.cpu: Running Insts:     10880000000
5445000206500: system.cpu: Running Insts:     10890000000
5450000206500: system.cpu: Running Insts:     10900000000
5455000206500: system.cpu: Running Insts:     10910000000
5460000206500: system.cpu: Running Insts:     10920000000
5465000206500: system.cpu: Running Insts:     10930000000
5470000206500: system.cpu: Running Insts:     10940000000
5475000206500: system.cpu: Running Insts:     10950000000
5480000206500: system.cpu: Running Insts:     10960000000
5485000206500: system.cpu: Running Insts:     10970000000
5490000206500: system.cpu: Running Insts:     10980000000
5495000206500: system.cpu: Running Insts:     10990000000
5500000206500: system.cpu: Running Insts:     11000000000
5505000206500: system.cpu: Running Insts:     11010000000
5510000206500: system.cpu: Running Insts:     11020000000
5515000206500: system.cpu: Running Insts:     11030000000
5520000206500: system.cpu: Running Insts:     11040000000
5525000206500: system.cpu: Running Insts:     11050000000
5530000206500: system.cpu: Running Insts:     11060000000
5535000206500: system.cpu: Running Insts:     11070000000
5540000206500: system.cpu: Running Insts:     11080000000
5545000206500: system.cpu: Running Insts:     11090000000
5550000206500: system.cpu: Running Insts:     11100000000
5555000206500: system.cpu: Running Insts:     11110000000
5560000206500: system.cpu: Running Insts:     11120000000
5565000206500: system.cpu: Running Insts:     11130000000
5570000206500: system.cpu: Running Insts:     11140000000
5575000206500: system.cpu: Running Insts:     11150000000
5580000206500: system.cpu: Running Insts:     11160000000
5585000206500: system.cpu: Running Insts:     11170000000
5590000206500: system.cpu: Running Insts:     11180000000
5595000206500: system.cpu: Running Insts:     11190000000
5600000206500: system.cpu: Running Insts:     11200000000
5605000206500: system.cpu: Running Insts:     11210000000
5610000206500: system.cpu: Running Insts:     11220000000
5615000206500: system.cpu: Running Insts:     11230000000
5620000206500: system.cpu: Running Insts:     11240000000
5625000206500: system.cpu: Running Insts:     11250000000
5630000206500: system.cpu: Running Insts:     11260000000
5635000206500: system.cpu: Running Insts:     11270000000
5640000206500: system.cpu: Running Insts:     11280000000
5645000206500: system.cpu: Running Insts:     11290000000
5650000206500: system.cpu: Running Insts:     11300000000
5655000206500: system.cpu: Running Insts:     11310000000
5660000206500: system.cpu: Running Insts:     11320000000
5665000206500: system.cpu: Running Insts:     11330000000
5670000206500: system.cpu: Running Insts:     11340000000
5675000206500: system.cpu: Running Insts:     11350000000
5680000206500: system.cpu: Running Insts:     11360000000
5685000206500: system.cpu: Running Insts:     11370000000
5690000206500: system.cpu: Running Insts:     11380000000
5695000206500: system.cpu: Running Insts:     11390000000
5700000206500: system.cpu: Running Insts:     11400000000
5705000206500: system.cpu: Running Insts:     11410000000
5710000206500: system.cpu: Running Insts:     11420000000
5715000206500: system.cpu: Running Insts:     11430000000
5720000206500: system.cpu: Running Insts:     11440000000
5725000206500: system.cpu: Running Insts:     11450000000
5730000206500: system.cpu: Running Insts:     11460000000
5735000206500: system.cpu: Running Insts:     11470000000
5740000206500: system.cpu: Running Insts:     11480000000
5745000206500: system.cpu: Running Insts:     11490000000
5750000206500: system.cpu: Running Insts:     11500000000
5755000206500: system.cpu: Running Insts:     11510000000
5760000206500: system.cpu: Running Insts:     11520000000
5765000206500: system.cpu: Running Insts:     11530000000
5770000206500: system.cpu: Running Insts:     11540000000
5775000206500: system.cpu: Running Insts:     11550000000
5780000206500: system.cpu: Running Insts:     11560000000
5785000206500: system.cpu: Running Insts:     11570000000
5790000206500: system.cpu: Running Insts:     11580000000
5795000206500: system.cpu: Running Insts:     11590000000
5800000206500: system.cpu: Running Insts:     11600000000
5805000206500: system.cpu: Running Insts:     11610000000
5810000206500: system.cpu: Running Insts:     11620000000
5815000206500: system.cpu: Running Insts:     11630000000
5820000206500: system.cpu: Running Insts:     11640000000
5825000206500: system.cpu: Running Insts:     11650000000
5830000206500: system.cpu: Running Insts:     11660000000
5835000206500: system.cpu: Running Insts:     11670000000
5840000206500: system.cpu: Running Insts:     11680000000
5845000206500: system.cpu: Running Insts:     11690000000
5850000206500: system.cpu: Running Insts:     11700000000
5855000206500: system.cpu: Running Insts:     11710000000
5860000206500: system.cpu: Running Insts:     11720000000
5865000206500: system.cpu: Running Insts:     11730000000
5870000206500: system.cpu: Running Insts:     11740000000
5875000206500: system.cpu: Running Insts:     11750000000
5880000206500: system.cpu: Running Insts:     11760000000
5885000206500: system.cpu: Running Insts:     11770000000
5890000206500: system.cpu: Running Insts:     11780000000
5895000206500: system.cpu: Running Insts:     11790000000
5900000206500: system.cpu: Running Insts:     11800000000
5905000206500: system.cpu: Running Insts:     11810000000
5910000206500: system.cpu: Running Insts:     11820000000
5915000206500: system.cpu: Running Insts:     11830000000
5920000206500: system.cpu: Running Insts:     11840000000
5925000206500: system.cpu: Running Insts:     11850000000
5930000206500: system.cpu: Running Insts:     11860000000
5935000206500: system.cpu: Running Insts:     11870000000
5940000206500: system.cpu: Running Insts:     11880000000
5945000206500: system.cpu: Running Insts:     11890000000
5950000206500: system.cpu: Running Insts:     11900000000
5955000206500: system.cpu: Running Insts:     11910000000
5960000206500: system.cpu: Running Insts:     11920000000
5965000206500: system.cpu: Running Insts:     11930000000
5970000206500: system.cpu: Running Insts:     11940000000
5975000206500: system.cpu: Running Insts:     11950000000
5980000206500: system.cpu: Running Insts:     11960000000
5985000206500: system.cpu: Running Insts:     11970000000
5990000206500: system.cpu: Running Insts:     11980000000
5995000206500: system.cpu: Running Insts:     11990000000
6000000206500: system.cpu: Running Insts:     12000000000
6005000206500: system.cpu: Running Insts:     12010000000
6010000206500: system.cpu: Running Insts:     12020000000
6015000206500: system.cpu: Running Insts:     12030000000
6020000206500: system.cpu: Running Insts:     12040000000
6025000206500: system.cpu: Running Insts:     12050000000
6030000206500: system.cpu: Running Insts:     12060000000
6035000206500: system.cpu: Running Insts:     12070000000
6040000206500: system.cpu: Running Insts:     12080000000
6045000206500: system.cpu: Running Insts:     12090000000
6050000206500: system.cpu: Running Insts:     12100000000
6055000206500: system.cpu: Running Insts:     12110000000
6060000206500: system.cpu: Running Insts:     12120000000
6065000206500: system.cpu: Running Insts:     12130000000
6070000206500: system.cpu: Running Insts:     12140000000
6075000206500: system.cpu: Running Insts:     12150000000
6080000206500: system.cpu: Running Insts:     12160000000
6085000206500: system.cpu: Running Insts:     12170000000
6090000206500: system.cpu: Running Insts:     12180000000
6095000206500: system.cpu: Running Insts:     12190000000
6100000206500: system.cpu: Running Insts:     12200000000
6105000206500: system.cpu: Running Insts:     12210000000
6110000206500: system.cpu: Running Insts:     12220000000
6115000206500: system.cpu: Running Insts:     12230000000
6120000206500: system.cpu: Running Insts:     12240000000
6125000206500: system.cpu: Running Insts:     12250000000
6130000206500: system.cpu: Running Insts:     12260000000
6135000206500: system.cpu: Running Insts:     12270000000
6140000206500: system.cpu: Running Insts:     12280000000
6145000206500: system.cpu: Running Insts:     12290000000
6150000206500: system.cpu: Running Insts:     12300000000
6155000206500: system.cpu: Running Insts:     12310000000
6160000206500: system.cpu: Running Insts:     12320000000
6165000206500: system.cpu: Running Insts:     12330000000
6170000206500: system.cpu: Running Insts:     12340000000
6175000206500: system.cpu: Running Insts:     12350000000
6180000206500: system.cpu: Running Insts:     12360000000
6185000206500: system.cpu: Running Insts:     12370000000
6190000206500: system.cpu: Running Insts:     12380000000
6195000206500: system.cpu: Running Insts:     12390000000
6200000206500: system.cpu: Running Insts:     12400000000
6205000206500: system.cpu: Running Insts:     12410000000
6210000206500: system.cpu: Running Insts:     12420000000
6215000206500: system.cpu: Running Insts:     12430000000
6220000206500: system.cpu: Running Insts:     12440000000
6225000206500: system.cpu: Running Insts:     12450000000
6230000206500: system.cpu: Running Insts:     12460000000
6235000206500: system.cpu: Running Insts:     12470000000
6240000206500: system.cpu: Running Insts:     12480000000
6245000206500: system.cpu: Running Insts:     12490000000
6250000206500: system.cpu: Running Insts:     12500000000
6255000206500: system.cpu: Running Insts:     12510000000
6260000206500: system.cpu: Running Insts:     12520000000
6265000206500: system.cpu: Running Insts:     12530000000
6270000206500: system.cpu: Running Insts:     12540000000
6275000206500: system.cpu: Running Insts:     12550000000
6280000206500: system.cpu: Running Insts:     12560000000
6285000206500: system.cpu: Running Insts:     12570000000
6290000206500: system.cpu: Running Insts:     12580000000
6295000206500: system.cpu: Running Insts:     12590000000
6300000206500: system.cpu: Running Insts:     12600000000
6305000206500: system.cpu: Running Insts:     12610000000
6310000206500: system.cpu: Running Insts:     12620000000
6315000206500: system.cpu: Running Insts:     12630000000
6320000206500: system.cpu: Running Insts:     12640000000
6325000206500: system.cpu: Running Insts:     12650000000
6330000206500: system.cpu: Running Insts:     12660000000
6335000206500: system.cpu: Running Insts:     12670000000
6340000206500: system.cpu: Running Insts:     12680000000
6345000206500: system.cpu: Running Insts:     12690000000
6350000206500: system.cpu: Running Insts:     12700000000
6355000206500: system.cpu: Running Insts:     12710000000
6360000206500: system.cpu: Running Insts:     12720000000
6365000206500: system.cpu: Running Insts:     12730000000
6370000206500: system.cpu: Running Insts:     12740000000
6375000206500: system.cpu: Running Insts:     12750000000
6380000206500: system.cpu: Running Insts:     12760000000
6385000206500: system.cpu: Running Insts:     12770000000
6390000206500: system.cpu: Running Insts:     12780000000
6395000206500: system.cpu: Running Insts:     12790000000
6400000206500: system.cpu: Running Insts:     12800000000
6405000206500: system.cpu: Running Insts:     12810000000
6410000206500: system.cpu: Running Insts:     12820000000
6415000206500: system.cpu: Running Insts:     12830000000
6420000206500: system.cpu: Running Insts:     12840000000
6425000206500: system.cpu: Running Insts:     12850000000
6430000206500: system.cpu: Running Insts:     12860000000
6435000206500: system.cpu: Running Insts:     12870000000
6440000206500: system.cpu: Running Insts:     12880000000
6445000206500: system.cpu: Running Insts:     12890000000
6450000206500: system.cpu: Running Insts:     12900000000
6455000206500: system.cpu: Running Insts:     12910000000
6460000206500: system.cpu: Running Insts:     12920000000
6465000206500: system.cpu: Running Insts:     12930000000
6470000206500: system.cpu: Running Insts:     12940000000
6475000206500: system.cpu: Running Insts:     12950000000
6480000206500: system.cpu: Running Insts:     12960000000
6485000206500: system.cpu: Running Insts:     12970000000
6490000206500: system.cpu: Running Insts:     12980000000
6495000206500: system.cpu: Running Insts:     12990000000
6500000206500: system.cpu: Running Insts:     13000000000
6505000206500: system.cpu: Running Insts:     13010000000
6510000206500: system.cpu: Running Insts:     13020000000
6515000206500: system.cpu: Running Insts:     13030000000
6520000206500: system.cpu: Running Insts:     13040000000
6525000206500: system.cpu: Running Insts:     13050000000
6530000206500: system.cpu: Running Insts:     13060000000
6535000206500: system.cpu: Running Insts:     13070000000
6540000206500: system.cpu: Running Insts:     13080000000
6545000206500: system.cpu: Running Insts:     13090000000
6550000206500: system.cpu: Running Insts:     13100000000
6555000206500: system.cpu: Running Insts:     13110000000
6560000206500: system.cpu: Running Insts:     13120000000
6565000206500: system.cpu: Running Insts:     13130000000
6570000206500: system.cpu: Running Insts:     13140000000
6575000206500: system.cpu: Running Insts:     13150000000
6580000206500: system.cpu: Running Insts:     13160000000
6585000206500: system.cpu: Running Insts:     13170000000
6590000206500: system.cpu: Running Insts:     13180000000
6595000206500: system.cpu: Running Insts:     13190000000
6600000206500: system.cpu: Running Insts:     13200000000
6605000206500: system.cpu: Running Insts:     13210000000
6610000206500: system.cpu: Running Insts:     13220000000
6615000206500: system.cpu: Running Insts:     13230000000
6620000206500: system.cpu: Running Insts:     13240000000
6625000206500: system.cpu: Running Insts:     13250000000
6630000206500: system.cpu: Running Insts:     13260000000
6635000206500: system.cpu: Running Insts:     13270000000
6640000206500: system.cpu: Running Insts:     13280000000
6645000206500: system.cpu: Running Insts:     13290000000
6650000206500: system.cpu: Running Insts:     13300000000
6655000206500: system.cpu: Running Insts:     13310000000
6660000206500: system.cpu: Running Insts:     13320000000
6665000206500: system.cpu: Running Insts:     13330000000
6670000206500: system.cpu: Running Insts:     13340000000
6675000206500: system.cpu: Running Insts:     13350000000
6680000206500: system.cpu: Running Insts:     13360000000
6685000206500: system.cpu: Running Insts:     13370000000
6690000206500: system.cpu: Running Insts:     13380000000
6695000206500: system.cpu: Running Insts:     13390000000
6700000206500: system.cpu: Running Insts:     13400000000
6705000206500: system.cpu: Running Insts:     13410000000
6710000206500: system.cpu: Running Insts:     13420000000
[...]
  --------------------------------------------------------------
  Initialization seed trial #3 of 5; initialization seed = 493575233
  --------------------------------------------------------------
  Initialized k-means centers using random sampling: 30 centers
  Number of k-means iterations performed: 51
  BIC score: 76059.4
  Distortion: 51.2978
  Distortions/cluster: 7.89674 0.0677823 0.469122 1.4328 0.39716 0.00965918 0.176509 0.106498 1.11717 0.452864 0.433238 0.106714 0.0335725 8.21383 1.28927 0.881895 0.37755 0.0631124 0.273074 0.316116 3.26111 0.00264211 20.5633 0.13839 0.0555662 0.0708942 2.83625 0.0126423 0.0206385 0.221717 
  Variance: 0.0175138
  Variances/cluster: 0.254734 0.00132906 0.00180431 0.0494069 0.00168288 0.000189396 0.00138983 0.0015214 0.0507806 0.00503183 0.00136668 0.00118571 0.000279771 0.631833 0.016964 0.00918641 0.0107872 0.00126225 0.00278647 0.00316116 0.203819 7.4636e-06 0.175755 0.00177423 0.00104842 0.000875237 0.472709 0.000395072 0.000156352 0.00226242 
  --------------------------------------------------------------
  Initialization seed trial #4 of 5; initialization seed = 493575234
  --------------------------------------------------------------
  Initialized k-means centers using random sampling: 30 centers
  Number of k-means iterations performed: 26
  BIC score: 86825.1
  Distortion: 31.7318
  Distortions/cluster: 0.561569 0.320699 0.144081 0.540267 0.792142 1.10993 0.16614 0.6684 0.295551 3.39216 0.157545 0.166798 0.396381 0.0324358 0.128843 0.291393 7.41369 3.19734e-36 0.206107 0.209833 0.0314071 10.6327 0.365614 0.170886 1.05009 1.11717 0.493298 0.268815 0.113326 0.494589 
  Variance: 0.0108337
  Variances/cluster: 0.00460303 0.00197962 0.00110832 0.041559 0.00977953 0.221987 0.00197786 0.00997612 0.00281477 0.0335857 0.00177016 0.0010109 0.00125437 8.33826e-05 0.00174112 0.00300405 0.264775 0 0.00189089 0.00121291 0.000640961 0.708844 0.00481071 0.0019642 0.0150013 0.0507806 0.123325 0.00126204 0.00171705 0.0290935 
  --------------------------------------------------------------
  Initialization seed trial #5 of 5; initialization seed = 493575235
  --------------------------------------------------------------
  Initialized k-means centers using random sampling: 30 centers
  Number of k-means iterations performed: 51
  BIC score: 65087.5
  Distortion: 84.2563
  Distortions/cluster: 0.39338 0.371731 0.073707 0.219851 0.392828 1.10993 0.0684729 0.0857029 0.113645 1.25969 0.360851 0.0126551 0.0584827 0.0407545 0.174634 4.23609 0.198025 0.253548 0.232332 0.26929 0.0728384 0.493298 0.304517 0.0306855 0.0706976 16.4251 0.540267 0.332992 55.9436 0.116721 
  Variance: 0.0287662
  Variances/cluster: 0.00154267 0.00129976 0.0013907 0.00255641 0.00530849 0.221987 0.0342364 0.00142838 0.0010621 0.0174956 0.0106133 3.41109e-05 0.00108301 0.000867116 0.00161698 0.0399631 0.00204149 0.00251038 0.00267048 0.00256466 0.000341965 0.123325 0.00142966 0.000538342 0.000679784 0.432239 0.041559 0.00497002 1.43445 0.00164395 
  The best initialization seed trial was #4

--------------------------------------------------------------
Run number 3 of at most 7, k = 15
--------------------------------------------------------------
  --------------------------------------------------------------
  Initialization seed trial #1 of 5; initialization seed = 493575236
  --------------------------------------------------------------
  Initialized k-means centers using random sampling: 15 centers
  Number of k-means iterations performed: 86
  BIC score: 55683.5
  Distortion: 150.281
  Distortions/cluster: 0.0126551 0.0306855 0.531858 0.0914437 26.739 10.6327 0.0584827 0.416488 42.9674 0.0857029 0.139738 62.1041 0.933343 4.50757 1.03022 
  Variance: 0.0510466
  Variances/cluster: 3.41109e-05 0.000538342 0.00379899 0.00157662 0.0343688 0.708844 0.00108301 0.00320376 0.284552 0.00142838 0.00191422 1.51473 0.00856278 0.0108355 0.00209821 
  --------------------------------------------------------------
  Initialization seed trial #2 of 5; initialization seed = 493575237
  --------------------------------------------------------------
  Initialized k-means centers using random sampling: 15 centers
  Number of k-means iterations performed: 19
  BIC score: 60987.1
  Distortion: 116.463
  Distortions/cluster: 2.48009 42.2208 0.942503 0.187351 0.397423 0.115214 1.90433 0.156375 0.193672 0.327725 55.9436 2.97669 0.565249 6.5552 1.49727 
  Variance: 0.0395596
  Variances/cluster: 0.354298 0.283361 0.00202689 0.00220413 0.0030808 0.000277625 0.126955 0.00197943 0.00220082 0.00287478 1.43445 0.00681164 0.00395279 0.0164704 0.00392985 
  --------------------------------------------------------------
  Initialization seed trial #3 of 5; initialization seed = 493575238
  --------------------------------------------------------------
  Initialized k-means centers using random sampling: 15 centers
  Number of k-means iterations performed: 47
  BIC score: 76293
  Distortion: 59.4144
  Distortions/cluster: 0.71688 3.26111 0.630778 0.871665 7.58689 1.05031 1.11717 0.582816 8.28912 1.73892 0.5539 10.6327 0.542022 21.5389 0.301188 
  Variance: 0.0201815
  Variances/cluster: 0.00543091 0.203819 0.00426201 0.0101356 0.261617 0.00567733 0.0507806 0.00473834 0.00922038 0.00920064 0.00261274 0.708844 0.00163753 0.179491 0.000689218 
  --------------------------------------------------------------
  Initialization seed trial #4 of 5; initialization seed = 493575239
  --------------------------------------------------------------
  Initialized k-means centers using random sampling: 15 centers
  Number of k-means iterations performed: 44
  BIC score: 63596.8
  Distortion: 103.404
  Distortions/cluster: 0.811275 1.47238 55.9436 20.2723 1.73251 0.977685 0.397337 8.4387 6.04238 0.793682 2.48009 1.90433 0.919141 0.681605 0.537415 
  Variance: 0.0351238
  Variances/cluster: 0.00485793 0.00387469 1.43445 0.173268 0.0153319 0.00227369 0.000894903 0.255718 0.0152201 0.0058359 0.354298 0.126955 0.00232106 0.00457453 0.00444145 
  --------------------------------------------------------------
  Initialization seed trial #5 of 5; initialization seed = 493575240
  --------------------------------------------------------------
  Initialized k-means centers using random sampling: 15 centers
  Number of k-means iterations performed: 38
  BIC score: 61168.7
  Distortion: 114.208
  Distortions/cluster: 0.428324 43.2144 0.871665 5.50796 55.9436 0.21467 1.19878 3.26111 0.120758 0.5539 0.763488 0.630778 0.709697 0.542022 0.247018 
  Variance: 0.0387935
  Variances/cluster: 0.00389385 0.288096 0.0101356 0.0122946 1.43445 0.00241202 0.00242177 0.203819 0.000290284 0.00261274 0.00468398 0.00426201 0.00466906 0.00163753 0.00277548 
  The best initialization seed trial was #3

--------------------------------------------------------------
Run number 4 of at most 7, k = 22
--------------------------------------------------------------
  --------------------------------------------------------------
  Initialization seed trial #1 of 5; initialization seed = 493575241
  --------------------------------------------------------------
  Initialized k-means centers using random sampling: 22 centers
  Number of k-means iterations performed: 48
  BIC score: 63151.6
  Distortion: 98.4508
  Distortions/cluster: 0.896967 3.2831 0.0584827 0.234956 0.612741 0.871665 0.5539 1.2658 0.916574 0.630778 0.542022 10.6327 0.245675 0.0684729 0.0306855 14.9615 0.0857029 0.0126551 0.0914437 62.1041 0.211197 0.139738 
  Variance: 0.0335209
  Variances/cluster: 0.00862468 0.0273592 0.00108301 0.00266995 0.00172118 0.0101356 0.00261274 0.0703221 0.0022033 0.00426201 0.00163753 0.708844 0.00248156 0.0342364 0.000538342 0.117807 0.00142838 3.41109e-05 0.00157662 1.51473 0.00209106 0.00191422 
  --------------------------------------------------------------
  Initialization seed trial #2 of 5; initialization seed = 493575242
  --------------------------------------------------------------
  Initialized k-means centers using random sampling: 22 centers
  Number of k-means iterations performed: 29
  BIC score: 72693.8
  Distortion: 64.0599
  Distortions/cluster: 0.784 0.119643 0.52073 1.07327 10.6327 1.11717 42.2208 1.00521 0.160407 0.335439 0.731903 1.29215 0.277447 0.0324358 0.456551 0.540267 1.10993 0.194866 0.449248 0.0337896 0.141615 0.830418 
  Variance: 0.0218113
  Variances/cluster: 0.00196985 0.00178572 0.00403667 0.00831993 0.708844 0.0507806 0.283361 0.0314127 0.0020565 0.00279532 0.00184824 0.0167811 0.00289007 8.33826e-05 0.00365241 0.041559 0.221987 0.00182118 0.00221304 0.000675792 0.000553183 0.0102521 
  --------------------------------------------------------------
  Initialization seed trial #3 of 5; initialization seed = 493575243
  --------------------------------------------------------------
  Initialized k-means centers using random sampling: 22 centers
  Number of k-means iterations performed: 40
  BIC score: 79092.6
  Distortion: 48.2772
  Distortions/cluster: 0.19201 0.215419 3.26111 0.265759 0.264535 0.491576 0.0684729 0.197044 1.11717 0.974469 0.256098 10.6327 5.2691 0.159654 21.2282 0.943232 0.103844 0.44563 0.097947 1.32176 0.302901 0.468651 
  Variance: 0.0164376
  Variances/cluster: 0.00151189 0.000502141 0.203819 0.00282722 0.0025683 0.0042015 0.0342364 0.00223913 0.0507806 0.00870061 0.00192555 0.708844 0.0138661 0.00380128 0.1799 0.00193285 0.000436318 0.0090945 0.00100976 0.0472057 0.00244275 0.00407523 
  --------------------------------------------------------------
  Initialization seed trial #4 of 5; initialization seed = 493575244
  --------------------------------------------------------------
  Initialized k-means centers using random sampling: 22 centers
  Number of k-means iterations performed: 39
  BIC score: 71982
  Distortion: 66.2503
  Distortions/cluster: 1.56727 0.121978 42.2208 2.48009 10.6327 1.90433 0.542022 1.00819 0.630778 1.11717 0.711197 0.0631124 0.0306855 0.871665 0.921185 0.253548 0.5539 0.0584827 0.0857029 0.232332 0.0126551 0.23062 
  Variance: 0.0225571
  Variances/cluster: 0.0155176 0.00167093 0.283361 0.354298 0.708844 0.126955 0.00163753 0.00261188 0.00426201 0.0507806 0.00177799 0.00126225 0.000538342 0.0101356 0.0086092 0.00251038 0.00261274 0.00108301 0.00142838 0.00267048 3.41109e-05 0.00219638 
  --------------------------------------------------------------
  Initialization seed trial #5 of 5; initialization seed = 493575245
  --------------------------------------------------------------
  Initialized k-means centers using random sampling: 22 centers
  Number of k-means iterations performed: 43
  BIC score: 67309.1
  Distortion: 81.485
  Distortions/cluster: 0.327725 0.141615 0.0324358 0.128843 0.524455 0.469588 7.41369 1.2658 0.367017 55.9436 0.168983 0.492883 0.0314071 0.674819 5.6688 0.194866 1.07601 0.113326 1.90433 4.07658 0.193672 0.274626 
  Variance: 0.0277443
  Variances/cluster: 0.00287478 0.000553183 8.33826e-05 0.00174112 0.00243932 0.00939176 0.264775 0.0703221 0.0031369 1.43445 0.00375517 0.00359769 0.000640961 0.001956 0.0550369 0.00182118 0.00231898 0.00171705 0.126955 0.0351429 0.00220082 0.00269241 
  The best initialization seed trial was #3

--------------------------------------------------------------
Run number 5 of at most 7, k = 18
--------------------------------------------------------------
  --------------------------------------------------------------
  Initialization seed trial #1 of 5; initialization seed = 493575246
  --------------------------------------------------------------
  Initialized k-means centers using random sampling: 18 centers
  Number of k-means iterations performed: 47
  BIC score: 72428.9
  Distortion: 67.4617
  Distortions/cluster: 0.871665 0.97378 0.193672 0.411377 42.2208 0.565249 0.5539 0.937402 0.542022 0.115214 0.630778 2.48009 10.6327 2.96794 0.156375 0.187351 1.90433 1.11717 
  Variance: 0.0229384
  Variances/cluster: 0.0101356 0.00846766 0.00220082 0.00316444 0.283361 0.00395279 0.00261274 0.00200729 0.00163753 0.000277625 0.00426201 0.354298 0.708844 0.00683857 0.00197943 0.00220413 0.126955 0.0507806 
  --------------------------------------------------------------
  Initialization seed trial #2 of 5; initialization seed = 493575247
  --------------------------------------------------------------
  Initialized k-means centers using random sampling: 18 centers
  Number of k-means iterations performed: 25
  BIC score: 67533.8
  Distortion: 84.0849
  Distortions/cluster: 1.12556 0.0314071 0.54602 1.2658 0.0324358 3.26111 1.03657 1.90706 4.35341 0.327725 0.601155 0.430354 0.193672 5.3732 55.9436 0.113326 7.41369 0.128843 
  Variance: 0.0285906
  Variances/cluster: 0.00410787 0.000640961 0.00384521 0.0703221 8.33826e-05 0.203819 0.00208566 0.0113515 0.0426805 0.00287478 0.00178915 0.00328514 0.00220082 0.0131054 1.43445 0.00171705 0.264775 0.00174112 
  --------------------------------------------------------------
  Initialization seed trial #3 of 5; initialization seed = 493575248
  --------------------------------------------------------------
  Initialized k-means centers using random sampling: 18 centers
  Number of k-means iterations performed: 43
  BIC score: 63360.4
  Distortion: 101.276
  Distortions/cluster: 0.37755 0.691528 7.89674 1.31489 1.64796 55.9436 0.0335725 22.5313 1.20699 0.176509 5.67014 0.106714 0.452864 1.90433 0.0206385 0.957113 0.273074 0.0708942 
  Variance: 0.034436
  Variances/cluster: 0.0107872 0.00149681 0.254734 0.00747097 0.00330915 1.43445 0.000279771 0.189338 0.00618971 0.00138983 0.0115247 0.00118571 0.00503183 0.126955 0.000156352 0.00678803 0.00278647 0.000875237 
  --------------------------------------------------------------
  Initialization seed trial #4 of 5; initialization seed = 493575249
  --------------------------------------------------------------
  Initialized k-means centers using random sampling: 18 centers
  Number of k-means iterations performed: 32
  BIC score: 74116.3
  Distortion: 62.3034
  Distortions/cluster: 1.23291 0.204765 0.534395 0.954764 0.52073 0.137865 1.20768 43.2144 3.26111 0.288686 0.800178 4.24695 0.131736 0.830418 2.72458 0.445834 0.449248 1.11717 
  Variance: 0.0211844
  Variances/cluster: 0.00228317 0.0018615 0.00449072 0.00312014 0.00403667 0.0344662 0.00844532 0.288096 0.203819 0.000662123 0.00493937 0.0294927 0.000520696 0.0102521 0.272458 0.00394544 0.00221304 0.0507806 
  --------------------------------------------------------------
  Initialization seed trial #5 of 5; initialization seed = 493575250
  --------------------------------------------------------------
  Initialized k-means centers using random sampling: 18 centers
  Number of k-means iterations performed: 71
  BIC score: 80978.4
  Distortion: 46.0285
  Distortions/cluster: 0.943133 2.72458 1.11717 2.40988 1.13816 0.445834 1.2658 1.20768 0.788101 1.66086 0.534395 24.6574 0.601155 0.95223 3.26111 0.137865 0.288686 1.8945 
  Variance: 0.0156506
  Variances/cluster: 0.00314378 0.272458 0.0507806 0.0280219 0.00413877 0.00394544 0.0703221 0.00844532 0.00489504 0.0176687 0.00449072 0.188224 0.00178915 0.00186712 0.203819 0.0344662 0.000662123 0.0113443 
  The best initialization seed trial was #5

--------------------------------------------------------------
Run number 6 of at most 7, k = 16
--------------------------------------------------------------
  --------------------------------------------------------------
  Initialization seed trial #1 of 5; initialization seed = 493575251
  --------------------------------------------------------------
  Initialized k-means centers using random sampling: 16 centers
  Number of k-means iterations performed: 23
  BIC score: 58711.9
  Distortion: 126.721
  Distortions/cluster: 0.113326 2.01479 10.6327 0.25592 0.0324358 1.90706 0.601155 62.1041 0.0314071 1.10949 1.15621 1.12556 42.2208 2.48458 0.134943 0.796701 
  Variance: 0.0430585
  Variances/cluster: 0.00171705 0.0248739 0.708844 0.00269389 8.33826e-05 0.0113515 0.00178915 1.51473 0.000640961 0.00314303 0.0083783 0.00410787 0.283361 0.00449292 0.00179924 0.00494845 
  --------------------------------------------------------------
  Initialization seed trial #2 of 5; initialization seed = 493575252
  --------------------------------------------------------------
  Initialized k-means centers using random sampling: 16 centers
  Number of k-means iterations performed: 32
  BIC score: 58719
  Distortion: 125.849
  Distortions/cluster: 0.534395 1.72589 62.1041 0.788101 0.288686 0.630778 0.942379 10.6327 0.445834 0.542022 1.38246 0.5539 0.978001 42.2208 0.871665 1.20768 
  Variance: 0.0427622
  Variances/cluster: 0.00449072 0.0250129 1.51473 0.00489504 0.000662123 0.00426201 0.00314126 0.708844 0.00394544 0.00163753 0.0131663 0.00261274 0.00189903 0.283361 0.0101356 0.00844532 
  --------------------------------------------------------------
  Initialization seed trial #3 of 5; initialization seed = 493575253
  --------------------------------------------------------------
  Initialized k-means centers using random sampling: 16 centers
  Number of k-means iterations performed: 45
  BIC score: 83119.3
  Distortion: 42.7804
  Distortions/cluster: 1.11717 5.74037 1.76553 0.5539 0.630778 0.542022 0.871665 1.2658 10.6327 0.869505 1.90433 1.8216 0.340748 1.64183 5.6688 7.41369 
  Variance: 0.0145363
  Variances/cluster: 0.0507806 0.0112777 0.00359579 0.00261274 0.00426201 0.00163753 0.0101356 0.0703221 0.708844 0.0061667 0.126955 0.0111073 0.000774428 0.00746287 0.0550369 0.264775 
  --------------------------------------------------------------
  Initialization seed trial #4 of 5; initialization seed = 493575254
  --------------------------------------------------------------
  Initialized k-means centers using random sampling: 16 centers
  Number of k-means iterations performed: 40
  BIC score: 55078.8
  Distortion: 149.572
  Distortions/cluster: 0.822443 6.47779 0.128843 0.0324358 0.113326 4.05214 0.366805 119.877 0.193672 0.0314071 1.57431 2.65643 0.522319 1.11717 0.97378 10.6327 
  Variance: 0.0508231
  Variances/cluster: 0.00198658 0.0163995 0.00174112 8.33826e-05 0.00171705 0.0101557 0.0030567 0.72215 0.00220082 0.000640961 0.00409977 0.0245965 0.00375769 0.0507806 0.00846766 0.708844 
  --------------------------------------------------------------
  Initialization seed trial #5 of 5; initialization seed = 493575255
  --------------------------------------------------------------
  Initialized k-means centers using random sampling: 16 centers
  Number of k-means iterations performed: 55
  BIC score: 60685
  Distortion: 116.877
  Distortions/cluster: 21.2282 0.97378 61.0892 0.113326 0.0324358 0.128843 4.50757 10.6327 1.47238 0.0314071 8.4387 1.03022 0.193672 0.416488 6.04238 0.54602 
  Variance: 0.0397136
  Variances/cluster: 0.1799 0.00846766 1.52723 0.00171705 8.33826e-05 0.00174112 0.0108355 0.708844 0.00387469 0.000640961 0.255718 0.00209821 0.00220082 0.00320376 0.0152201 0.00384521 
  The best initialization seed trial was #3

------------------------------------------------------------------
------------------------------------------------------------------
Post-processing runs
------------------------------------------------------------------
------------------------------------------------------------------
  For the BIC threshold, the best clustering was run 6 (k = 16)
  Post-processing run 6 (k = 16)
    Saving simpoints of all non-empty clusters to file '/home/cuihongwei/experiment/simpoint/429.mcf/arm-429.mcf-input1-190518-113053/simpoint_file'
    Saving weights of all non-empty clusters to file '/home/cuihongwei/experiment/simpoint/429.mcf/arm-429.mcf-input1-190518-113053/weight_file'
