
******************************directory****************************
spec_dir: /home/cuihongwei/spec2006
run_dir:  /home/cuihongwei/gem5/simpoint_arm/401.bzip2/arm-401.bzip2-input4-190604-144227/run
gem5_dir: /home/cuihongwei/gem5/pubs-gem5
gem5_output_dir: /home/cuihongwei/gem5/simpoint_arm/401.bzip2/arm-401.bzip2-input4-190604-144227
benchmark_output:/home/cuihongwei/gem5/simpoint_arm/401.bzip2/arm-401.bzip2-input4-190604-144227

******************************benchmark****************************
target:     401.bzip2
executable: bzip2
args:       input.program 280
input:      
output:     /home/cuihongwei/gem5/simpoint_arm/401.bzip2/arm-401.bzip2-input4-190604-144227/run/input.program.out
errout:     /home/cuihongwei/gem5/simpoint_arm/401.bzip2/arm-401.bzip2-input4-190604-144227/run/input.program.err

******************************gem5****************************
arch:       /home/cuihongwei/gem5/pubs-gem5/build/ARM/gem5.opt
config:     /home/cuihongwei/gem5/pubs-gem5/configs/example/se.py
args:       --simpoint-profile --simpoint-interval=100000000 --maxinsts=900000000000 --cpu-type=NonCachingSimpleCPU --mem-type=SimpleMemory --mem-size=8GB

******************************simulation****************************
start time:(year-mon-day hour-minute-second)19-06-04 14-42-27
gem5 Simulator System.  http://gem5.org
gem5 is copyrighted software; use the --copyright option for details.

gem5 compiled May 16 2019 16:22:28
gem5 started Jun  4 2019 14:42:28
gem5 executing on mprc-80, pid 31722
command line: /home/cuihongwei/gem5/pubs-gem5/build/ARM/gem5.opt --outdir=/home/cuihongwei/gem5/simpoint_arm/401.bzip2/arm-401.bzip2-input4-190604-144227 --debug-flags=ShowRunning /home/cuihongwei/gem5/pubs-gem5/configs/example/se.py --simpoint-profile --simpoint-interval=100000000 --maxinsts=900000000000 --cpu-type=NonCachingSimpleCPU --mem-type=SimpleMemory --mem-size=8GB --cmd=bzip2 '--options=input.program 280' --output=/home/cuihongwei/gem5/simpoint_arm/401.bzip2/arm-401.bzip2-input4-190604-144227/run/input.program.out --input= --errout=/home/cuihongwei/gem5/simpoint_arm/401.bzip2/arm-401.bzip2-input4-190604-144227/run/input.program.err

Global frequency set at 1000000000000 ticks per second
**** REAL SIMULATION ****
      0: system.cpu: Running Insts:               0
5000038000: system.cpu: Running Insts:        10000000
10000038000: system.cpu: Running Insts:        20000000
15000038000: system.cpu: Running Insts:        30000000
20000038000: system.cpu: Running Insts:        40000000
25000038000: system.cpu: Running Insts:        50000000
30000038000: system.cpu: Running Insts:        60000000
35000038000: system.cpu: Running Insts:        70000000
40000038000: system.cpu: Running Insts:        80000000
45000038000: system.cpu: Running Insts:        90000000
50000038000: system.cpu: Running Insts:       100000000
55000038000: system.cpu: Running Insts:       110000000
60000040000: system.cpu: Running Insts:       120000000
65000040000: system.cpu: Running Insts:       130000000
70000040500: system.cpu: Running Insts:       140000000
75000040500: system.cpu: Running Insts:       150000000
80000040500: system.cpu: Running Insts:       160000000
85000040500: system.cpu: Running Insts:       170000000
90000040500: system.cpu: Running Insts:       180000000
95000040500: system.cpu: Running Insts:       190000000
100000040500: system.cpu: Running Insts:       200000000
105000040500: system.cpu: Running Insts:       210000000
110000040500: system.cpu: Running Insts:       220000000
115000040500: system.cpu: Running Insts:       230000000
120000040500: system.cpu: Running Insts:       240000000
125000040500: system.cpu: Running Insts:       250000000
130000040500: system.cpu: Running Insts:       260000000
135000040500: system.cpu: Running Insts:       270000000
140000040500: system.cpu: Running Insts:       280000000
145000040500: system.cpu: Running Insts:       290000000
150000040500: system.cpu: Running Insts:       300000000
155000040500: system.cpu: Running Insts:       310000000
160000041000: system.cpu: Running Insts:       320000000
165000041000: system.cpu: Running Insts:       330000000
170000041000: system.cpu: Running Insts:       340000000
175000041000: system.cpu: Running Insts:       350000000
180000041000: system.cpu: Running Insts:       360000000
185000041000: system.cpu: Running Insts:       370000000
190000041000: system.cpu: Running Insts:       380000000
195000041000: system.cpu: Running Insts:       390000000
200000041000: system.cpu: Running Insts:       400000000
205000041000: system.cpu: Running Insts:       410000000
210000041000: system.cpu: Running Insts:       420000000
215000041000: system.cpu: Running Insts:       430000000
220000041000: system.cpu: Running Insts:       440000000
225000041000: system.cpu: Running Insts:       450000000
230000041000: system.cpu: Running Insts:       460000000
235000041000: system.cpu: Running Insts:       470000000
240000041000: system.cpu: Running Insts:       480000000
245000041000: system.cpu: Running Insts:       490000000
250000041000: system.cpu: Running Insts:       500000000
255000041000: system.cpu: Running Insts:       510000000
260000041000: system.cpu: Running Insts:       520000000
265000041000: system.cpu: Running Insts:       530000000
270000041000: system.cpu: Running Insts:       540000000
275000041000: system.cpu: Running Insts:       550000000
280000041000: system.cpu: Running Insts:       560000000
285000041000: system.cpu: Running Insts:       570000000
290000041000: system.cpu: Running Insts:       580000000
295000041000: system.cpu: Running Insts:       590000000
300000041000: system.cpu: Running Insts:       600000000
305000041000: system.cpu: Running Insts:       610000000
310000041000: system.cpu: Running Insts:       620000000
315000041000: system.cpu: Running Insts:       630000000
320000041000: system.cpu: Running Insts:       640000000
325000041000: system.cpu: Running Insts:       650000000
330000041000: system.cpu: Running Insts:       660000000
335000041000: system.cpu: Running Insts:       670000000
340000041000: system.cpu: Running Insts:       680000000
345000041000: system.cpu: Running Insts:       690000000
350000041000: system.cpu: Running Insts:       700000000
355000041000: system.cpu: Running Insts:       710000000
360000041000: system.cpu: Running Insts:       720000000
365000041000: system.cpu: Running Insts:       730000000
370000041000: system.cpu: Running Insts:       740000000
375000041000: system.cpu: Running Insts:       750000000
380000041000: system.cpu: Running Insts:       760000000
385000041000: system.cpu: Running Insts:       770000000
390000041000: system.cpu: Running Insts:       780000000
395000041000: system.cpu: Running Insts:       790000000
400000041000: system.cpu: Running Insts:       800000000
405000041000: system.cpu: Running Insts:       810000000
410000041000: system.cpu: Running Insts:       820000000
415000041000: system.cpu: Running Insts:       830000000
420000041000: system.cpu: Running Insts:       840000000
425000041000: system.cpu: Running Insts:       850000000
430000041000: system.cpu: Running Insts:       860000000
435000041000: system.cpu: Running Insts:       870000000
440000041000: system.cpu: Running Insts:       880000000
445000041000: system.cpu: Running Insts:       890000000
450000041000: system.cpu: Running Insts:       900000000
455000041000: system.cpu: Running Insts:       910000000
460000041000: system.cpu: Running Insts:       920000000
465000041000: system.cpu: Running Insts:       930000000
470000041000: system.cpu: Running Insts:       940000000
475000041000: system.cpu: Running Insts:       950000000
480000041000: system.cpu: Running Insts:       960000000
485000041000: system.cpu: Running Insts:       970000000
490000041000: system.cpu: Running Insts:       980000000
495000041000: system.cpu: Running Insts:       990000000
500000041000: system.cpu: Running Insts:      1000000000
505000041000: system.cpu: Running Insts:      1010000000
510000041000: system.cpu: Running Insts:      1020000000
515000041000: system.cpu: Running Insts:      1030000000
520000041000: system.cpu: Running Insts:      1040000000
525000041000: system.cpu: Running Insts:      1050000000
530000041000: system.cpu: Running Insts:      1060000000
535000041000: system.cpu: Running Insts:      1070000000
540000041000: system.cpu: Running Insts:      1080000000
545000041000: system.cpu: Running Insts:      1090000000
550000041000: system.cpu: Running Insts:      1100000000
555000041000: system.cpu: Running Insts:      1110000000
560000041000: system.cpu: Running Insts:      1120000000
565000041000: system.cpu: Running Insts:      1130000000
570000041000: system.cpu: Running Insts:      1140000000
575000041000: system.cpu: Running Insts:      1150000000
580000041000: system.cpu: Running Insts:      1160000000
585000041000: system.cpu: Running Insts:      1170000000
590000041000: system.cpu: Running Insts:      1180000000
595000041000: system.cpu: Running Insts:      1190000000
600000041000: system.cpu: Running Insts:      1200000000
605000041000: system.cpu: Running Insts:      1210000000
610000041000: system.cpu: Running Insts:      1220000000
615000041000: system.cpu: Running Insts:      1230000000
620000041000: system.cpu: Running Insts:      1240000000
625000041000: system.cpu: Running Insts:      1250000000
630000041000: system.cpu: Running Insts:      1260000000
635000041000: system.cpu: Running Insts:      1270000000
640000041000: system.cpu: Running Insts:      1280000000
645000041000: system.cpu: Running Insts:      1290000000
650000041000: system.cpu: Running Insts:      1300000000
655000041000: system.cpu: Running Insts:      1310000000
660000041000: system.cpu: Running Insts:      1320000000
665000041000: system.cpu: Running Insts:      1330000000
670000041000: system.cpu: Running Insts:      1340000000
675000041000: system.cpu: Running Insts:      1350000000
680000041000: system.cpu: Running Insts:      1360000000
685000041000: system.cpu: Running Insts:      1370000000
690000041000: system.cpu: Running Insts:      1380000000
695000041000: system.cpu: Running Insts:      1390000000
700000041000: system.cpu: Running Insts:      1400000000
705000041000: system.cpu: Running Insts:      1410000000
710000041000: system.cpu: Running Insts:      1420000000
715000041000: system.cpu: Running Insts:      1430000000
720000041000: system.cpu: Running Insts:      1440000000
725000041000: system.cpu: Running Insts:      1450000000
730000041000: system.cpu: Running Insts:      1460000000
735000041000: system.cpu: Running Insts:      1470000000
740000041000: system.cpu: Running Insts:      1480000000
745000041000: system.cpu: Running Insts:      1490000000
750000041000: system.cpu: Running Insts:      1500000000
755000041000: system.cpu: Running Insts:      1510000000
760000041000: system.cpu: Running Insts:      1520000000
765000041000: system.cpu: Running Insts:      1530000000
770000041000: system.cpu: Running Insts:      1540000000
775000041000: system.cpu: Running Insts:      1550000000
780000041000: system.cpu: Running Insts:      1560000000
785000041000: system.cpu: Running Insts:      1570000000
790000041000: system.cpu: Running Insts:      1580000000
795000041000: system.cpu: Running Insts:      1590000000
800000041000: system.cpu: Running Insts:      1600000000
805000041000: system.cpu: Running Insts:      1610000000
810000041000: system.cpu: Running Insts:      1620000000
815000041000: system.cpu: Running Insts:      1630000000
820000041000: system.cpu: Running Insts:      1640000000
825000041000: system.cpu: Running Insts:      1650000000
830000041000: system.cpu: Running Insts:      1660000000
835000041000: system.cpu: Running Insts:      1670000000
840000041000: system.cpu: Running Insts:      1680000000
845000041000: system.cpu: Running Insts:      1690000000
850000041000: system.cpu: Running Insts:      1700000000
855000041000: system.cpu: Running Insts:      1710000000
860000041000: system.cpu: Running Insts:      1720000000
865000041000: system.cpu: Running Insts:      1730000000
870000041000: system.cpu: Running Insts:      1740000000
875000041000: system.cpu: Running Insts:      1750000000
880000041000: system.cpu: Running Insts:      1760000000
885000041000: system.cpu: Running Insts:      1770000000
890000041000: system.cpu: Running Insts:      1780000000
895000041000: system.cpu: Running Insts:      1790000000
900000041000: system.cpu: Running Insts:      1800000000
905000041000: system.cpu: Running Insts:      1810000000
910000041000: system.cpu: Running Insts:      1820000000
915000041000: system.cpu: Running Insts:      1830000000
920000041000: system.cpu: Running Insts:      1840000000
925000041000: system.cpu: Running Insts:      1850000000
930000041000: system.cpu: Running Insts:      1860000000
935000041000: system.cpu: Running Insts:      1870000000
940000041000: system.cpu: Running Insts:      1880000000
945000041000: system.cpu: Running Insts:      1890000000
950000041000: system.cpu: Running Insts:      1900000000
955000041000: system.cpu: Running Insts:      1910000000
960000041000: system.cpu: Running Insts:      1920000000
965000041000: system.cpu: Running Insts:      1930000000
970000041000: system.cpu: Running Insts:      1940000000
975000041000: system.cpu: Running Insts:      1950000000
980000041000: system.cpu: Running Insts:      1960000000
985000041000: system.cpu: Running Insts:      1970000000
990000041000: system.cpu: Running Insts:      1980000000
995000041000: system.cpu: Running Insts:      1990000000
1000000041000: system.cpu: Running Insts:      2000000000
1005000041000: system.cpu: Running Insts:      2010000000
1010000041000: system.cpu: Running Insts:      2020000000
1015000041000: system.cpu: Running Insts:      2030000000
1020000041000: system.cpu: Running Insts:      2040000000
1025000041000: system.cpu: Running Insts:      2050000000
1030000041000: system.cpu: Running Insts:      2060000000
1035000041000: system.cpu: Running Insts:      2070000000
1040000041000: system.cpu: Running Insts:      2080000000
1045000041000: system.cpu: Running Insts:      2090000000
1050000041000: system.cpu: Running Insts:      2100000000
1055000041000: system.cpu: Running Insts:      2110000000
1060000041000: system.cpu: Running Insts:      2120000000
1065000041000: system.cpu: Running Insts:      2130000000
1070000041000: system.cpu: Running Insts:      2140000000
1075000041000: system.cpu: Running Insts:      2150000000
1080000041000: system.cpu: Running Insts:      2160000000
1085000041000: system.cpu: Running Insts:      2170000000
1090000041000: system.cpu: Running Insts:      2180000000
1095000041000: system.cpu: Running Insts:      2190000000
1100000041000: system.cpu: Running Insts:      2200000000
1105000041000: system.cpu: Running Insts:      2210000000
1110000041000: system.cpu: Running Insts:      2220000000
1115000041000: system.cpu: Running Insts:      2230000000
1120000041000: system.cpu: Running Insts:      2240000000
1125000041000: system.cpu: Running Insts:      2250000000
1130000041000: system.cpu: Running Insts:      2260000000
1135000041000: system.cpu: Running Insts:      2270000000
1140000041000: system.cpu: Running Insts:      2280000000
1145000041000: system.cpu: Running Insts:      2290000000
1150000041000: system.cpu: Running Insts:      2300000000
1155000041000: system.cpu: Running Insts:      2310000000
1160000041000: system.cpu: Running Insts:      2320000000
1165000041000: system.cpu: Running Insts:      2330000000
1170000041000: system.cpu: Running Insts:      2340000000
1175000041000: system.cpu: Running Insts:      2350000000
1180000041000: system.cpu: Running Insts:      2360000000
1185000041000: system.cpu: Running Insts:      2370000000
1190000041000: system.cpu: Running Insts:      2380000000
1195000041000: system.cpu: Running Insts:      2390000000
1200000041000: system.cpu: Running Insts:      2400000000
1205000041000: system.cpu: Running Insts:      2410000000
1210000041000: system.cpu: Running Insts:      2420000000
1215000041000: system.cpu: Running Insts:      2430000000
1220000041000: system.cpu: Running Insts:      2440000000
1225000041000: system.cpu: Running Insts:      2450000000
1230000041000: system.cpu: Running Insts:      2460000000
1235000041000: system.cpu: Running Insts:      2470000000
1240000041000: system.cpu: Running Insts:      2480000000
1245000041000: system.cpu: Running Insts:      2490000000
1250000041000: system.cpu: Running Insts:      2500000000
1255000041000: system.cpu: Running Insts:      2510000000
1260000041000: system.cpu: Running Insts:      2520000000
1265000041000: system.cpu: Running Insts:      2530000000
1270000041000: system.cpu: Running Insts:      2540000000
1275000041000: system.cpu: Running Insts:      2550000000
1280000041000: system.cpu: Running Insts:      2560000000
1285000041000: system.cpu: Running Insts:      2570000000
1290000041000: system.cpu: Running Insts:      2580000000
1295000041000: system.cpu: Running Insts:      2590000000
1300000041000: system.cpu: Running Insts:      2600000000
1305000041000: system.cpu: Running Insts:      2610000000
1310000041000: system.cpu: Running Insts:      2620000000
1315000041000: system.cpu: Running Insts:      2630000000
1320000041000: system.cpu: Running Insts:      2640000000
1325000041000: system.cpu: Running Insts:      2650000000
1330000041000: system.cpu: Running Insts:      2660000000
1335000041000: system.cpu: Running Insts:      2670000000
1340000041000: system.cpu: Running Insts:      2680000000
1345000041000: system.cpu: Running Insts:      2690000000
1350000041000: system.cpu: Running Insts:      2700000000
1355000041000: system.cpu: Running Insts:      2710000000
1360000041000: system.cpu: Running Insts:      2720000000
1365000041000: system.cpu: Running Insts:      2730000000
1370000041000: system.cpu: Running Insts:      2740000000
1375000041000: system.cpu: Running Insts:      2750000000
1380000041000: system.cpu: Running Insts:      2760000000
1385000041000: system.cpu: Running Insts:      2770000000
1390000041000: system.cpu: Running Insts:      2780000000
1395000041000: system.cpu: Running Insts:      2790000000
1400000041000: system.cpu: Running Insts:      2800000000
1405000041000: system.cpu: Running Insts:      2810000000
1410000041000: system.cpu: Running Insts:      2820000000
1415000041000: system.cpu: Running Insts:      2830000000
1420000041000: system.cpu: Running Insts:      2840000000
1425000041000: system.cpu: Running Insts:      2850000000
1430000041000: system.cpu: Running Insts:      2860000000
1435000041000: system.cpu: Running Insts:      2870000000
1440000041000: system.cpu: Running Insts:      2880000000
1445000041000: system.cpu: Running Insts:      2890000000
1450000041000: system.cpu: Running Insts:      2900000000
1455000041000: system.cpu: Running Insts:      2910000000
1460000041000: system.cpu: Running Insts:      2920000000
1465000041000: system.cpu: Running Insts:      2930000000
1470000041000: system.cpu: Running Insts:      2940000000
1475000041000: system.cpu: Running Insts:      2950000000
1480000041000: system.cpu: Running Insts:      2960000000
1485000041000: system.cpu: Running Insts:      2970000000
1490000041000: system.cpu: Running Insts:      2980000000
1495000041000: system.cpu: Running Insts:      2990000000
1500000041000: system.cpu: Running Insts:      3000000000
1505000041000: system.cpu: Running Insts:      3010000000
1510000041000: system.cpu: Running Insts:      3020000000
1515000041000: system.cpu: Running Insts:      3030000000
1520000041000: system.cpu: Running Insts:      3040000000
1525000041000: system.cpu: Running Insts:      3050000000
1530000041000: system.cpu: Running Insts:      3060000000
1535000041000: system.cpu: Running Insts:      3070000000
1540000041000: system.cpu: Running Insts:      3080000000
1545000041000: system.cpu: Running Insts:      3090000000
1550000041000: system.cpu: Running Insts:      3100000000
1555000041000: system.cpu: Running Insts:      3110000000
1560000041000: system.cpu: Running Insts:      3120000000
1565000041000: system.cpu: Running Insts:      3130000000
1570000041000: system.cpu: Running Insts:      3140000000
1575000041000: system.cpu: Running Insts:      3150000000
1580000041000: system.cpu: Running Insts:      3160000000
1585000041000: system.cpu: Running Insts:      3170000000
1590000041000: system.cpu: Running Insts:      3180000000
1595000041000: system.cpu: Running Insts:      3190000000
1600000041000: system.cpu: Running Insts:      3200000000
1605000041000: system.cpu: Running Insts:      3210000000
1610000041000: system.cpu: Running Insts:      3220000000
1615000041000: system.cpu: Running Insts:      3230000000
1620000041000: system.cpu: Running Insts:      3240000000
1625000041000: system.cpu: Running Insts:      3250000000
1630000041000: system.cpu: Running Insts:      3260000000
1635000041000: system.cpu: Running Insts:      3270000000
1640000041000: system.cpu: Running Insts:      3280000000
1645000041000: system.cpu: Running Insts:      3290000000
1650000041000: system.cpu: Running Insts:      3300000000
1655000041000: system.cpu: Running Insts:      3310000000
1660000041000: system.cpu: Running Insts:      3320000000
1665000041000: system.cpu: Running Insts:      3330000000
1670000041000: system.cpu: Running Insts:      3340000000
1675000041000: system.cpu: Running Insts:      3350000000
1680000041000: system.cpu: Running Insts:      3360000000
1685000041000: system.cpu: Running Insts:      3370000000
1690000041000: system.cpu: Running Insts:      3380000000
1695000041000: system.cpu: Running Insts:      3390000000
1700000041000: system.cpu: Running Insts:      3400000000
1705000041000: system.cpu: Running Insts:      3410000000
1710000041000: system.cpu: Running Insts:      3420000000
1715000041000: system.cpu: Running Insts:      3430000000
1720000041000: system.cpu: Running Insts:      3440000000
1725000041000: system.cpu: Running Insts:      3450000000
1730000041000: system.cpu: Running Insts:      3460000000
1735000041000: system.cpu: Running Insts:      3470000000
1740000041000: system.cpu: Running Insts:      3480000000
1745000041000: system.cpu: Running Insts:      3490000000
1750000041000: system.cpu: Running Insts:      3500000000
1755000041000: system.cpu: Running Insts:      3510000000
1760000041000: system.cpu: Running Insts:      3520000000
1765000041000: system.cpu: Running Insts:      3530000000
1770000041000: system.cpu: Running Insts:      3540000000
1775000041000: system.cpu: Running Insts:      3550000000
1780000041000: system.cpu: Running Insts:      3560000000
1785000041000: system.cpu: Running Insts:      3570000000
1790000041000: system.cpu: Running Insts:      3580000000
1795000041000: system.cpu: Running Insts:      3590000000
1800000041000: system.cpu: Running Insts:      3600000000
1805000041000: system.cpu: Running Insts:      3610000000
1810000041000: system.cpu: Running Insts:      3620000000
1815000041000: system.cpu: Running Insts:      3630000000
1820000041000: system.cpu: Running Insts:      3640000000
1825000041000: system.cpu: Running Insts:      3650000000
1830000041000: system.cpu: Running Insts:      3660000000
1835000041000: system.cpu: Running Insts:      3670000000
1840000041000: system.cpu: Running Insts:      3680000000
1845000041000: system.cpu: Running Insts:      3690000000
1850000041000: system.cpu: Running Insts:      3700000000
1855000041000: system.cpu: Running Insts:      3710000000
1860000041000: system.cpu: Running Insts:      3720000000
1865000041000: system.cpu: Running Insts:      3730000000
1870000041000: system.cpu: Running Insts:      3740000000
1875000041000: system.cpu: Running Insts:      3750000000
1880000041000: system.cpu: Running Insts:      3760000000
1885000041000: system.cpu: Running Insts:      3770000000
1890000041000: system.cpu: Running Insts:      3780000000
1895000041000: system.cpu: Running Insts:      3790000000
1900000041000: system.cpu: Running Insts:      3800000000
1905000041000: system.cpu: Running Insts:      3810000000
1910000041000: system.cpu: Running Insts:      3820000000
1915000041000: system.cpu: Running Insts:      3830000000
1920000041000: system.cpu: Running Insts:      3840000000
1925000041000: system.cpu: Running Insts:      3850000000
1930000041000: system.cpu: Running Insts:      3860000000
1935000041000: system.cpu: Running Insts:      3870000000
1940000041000: system.cpu: Running Insts:      3880000000
1945000041000: system.cpu: Running Insts:      3890000000
1950000041000: system.cpu: Running Insts:      3900000000
1955000041000: system.cpu: Running Insts:      3910000000
1960000041000: system.cpu: Running Insts:      3920000000
1965000041000: system.cpu: Running Insts:      3930000000
1970000041000: system.cpu: Running Insts:      3940000000
1975000041000: system.cpu: Running Insts:      3950000000
1980000041000: system.cpu: Running Insts:      3960000000
1985000041000: system.cpu: Running Insts:      3970000000
1990000041000: system.cpu: Running Insts:      3980000000
1995000041000: system.cpu: Running Insts:      3990000000
2000000041000: system.cpu: Running Insts:      4000000000
2005000041000: system.cpu: Running Insts:      4010000000
2010000041000: system.cpu: Running Insts:      4020000000
2015000041000: system.cpu: Running Insts:      4030000000
2020000041000: system.cpu: Running Insts:      4040000000
2025000041000: system.cpu: Running Insts:      4050000000
2030000041000: system.cpu: Running Insts:      4060000000
2035000041000: system.cpu: Running Insts:      4070000000
2040000041000: system.cpu: Running Insts:      4080000000
2045000041000: system.cpu: Running Insts:      4090000000
2050000041000: system.cpu: Running Insts:      4100000000
2055000041000: system.cpu: Running Insts:      4110000000
2060000041000: system.cpu: Running Insts:      4120000000
2065000041000: system.cpu: Running Insts:      4130000000
2070000041000: system.cpu: Running Insts:      4140000000
2075000041000: system.cpu: Running Insts:      4150000000
2080000041000: system.cpu: Running Insts:      4160000000
2085000041000: system.cpu: Running Insts:      4170000000
2090000041000: system.cpu: Running Insts:      4180000000
2095000041000: system.cpu: Running Insts:      4190000000
2100000041000: system.cpu: Running Insts:      4200000000
2105000041000: system.cpu: Running Insts:      4210000000
2110000041000: system.cpu: Running Insts:      4220000000
2115000041000: system.cpu: Running Insts:      4230000000
2120000041000: system.cpu: Running Insts:      4240000000
2125000041000: system.cpu: Running Insts:      4250000000
2130000041000: system.cpu: Running Insts:      4260000000
2135000041000: system.cpu: Running Insts:      4270000000
2140000041000: system.cpu: Running Insts:      4280000000
2145000041000: system.cpu: Running Insts:      4290000000
2150000041000: system.cpu: Running Insts:      4300000000
2155000041000: system.cpu: Running Insts:      4310000000
2160000041000: system.cpu: Running Insts:      4320000000
2165000041000: system.cpu: Running Insts:      4330000000
2170000041000: system.cpu: Running Insts:      4340000000
2175000041000: system.cpu: Running Insts:      4350000000
2180000041000: system.cpu: Running Insts:      4360000000
2185000041000: system.cpu: Running Insts:      4370000000
2190000041000: system.cpu: Running Insts:      4380000000
2195000041000: system.cpu: Running Insts:      4390000000
2200000041000: system.cpu: Running Insts:      4400000000
2205000041000: system.cpu: Running Insts:      4410000000
2210000041000: system.cpu: Running Insts:      4420000000
2215000041000: system.cpu: Running Insts:      4430000000
2220000041000: system.cpu: Running Insts:      4440000000
2225000041000: system.cpu: Running Insts:      4450000000
2230000041000: system.cpu: Running Insts:      4460000000
2235000041000: system.cpu: Running Insts:      4470000000
2240000041000: system.cpu: Running Insts:      4480000000
2245000041000: system.cpu: Running Insts:      4490000000
2250000041000: system.cpu: Running Insts:      4500000000
2255000041000: system.cpu: Running Insts:      4510000000
2260000041000: system.cpu: Running Insts:      4520000000
2265000041000: system.cpu: Running Insts:      4530000000
2270000041000: system.cpu: Running Insts:      4540000000
2275000041000: system.cpu: Running Insts:      4550000000
2280000041000: system.cpu: Running Insts:      4560000000
2285000041000: system.cpu: Running Insts:      4570000000
2290000041000: system.cpu: Running Insts:      4580000000
2295000041000: system.cpu: Running Insts:      4590000000
2300000041000: system.cpu: Running Insts:      4600000000
2305000041000: system.cpu: Running Insts:      4610000000
2310000041000: system.cpu: Running Insts:      4620000000
2315000041000: system.cpu: Running Insts:      4630000000
2320000041000: system.cpu: Running Insts:      4640000000
2325000041000: system.cpu: Running Insts:      4650000000
2330000041000: system.cpu: Running Insts:      4660000000
2335000041000: system.cpu: Running Insts:      4670000000
2340000041000: system.cpu: Running Insts:      4680000000
2345000041000: system.cpu: Running Insts:      4690000000
2350000041000: system.cpu: Running Insts:      4700000000
2355000041000: system.cpu: Running Insts:      4710000000
2360000041000: system.cpu: Running Insts:      4720000000
2365000041000: system.cpu: Running Insts:      4730000000
2370000041000: system.cpu: Running Insts:      4740000000
2375000041000: system.cpu: Running Insts:      4750000000
2380000041000: system.cpu: Running Insts:      4760000000
2385000041000: system.cpu: Running Insts:      4770000000
2390000041000: system.cpu: Running Insts:      4780000000
2395000041000: system.cpu: Running Insts:      4790000000
2400000041000: system.cpu: Running Insts:      4800000000
2405000041000: system.cpu: Running Insts:      4810000000
2410000041000: system.cpu: Running Insts:      4820000000
2415000041000: system.cpu: Running Insts:      4830000000
2420000041000: system.cpu: Running Insts:      4840000000
2425000041000: system.cpu: Running Insts:      4850000000
2430000041000: system.cpu: Running Insts:      4860000000
2435000041000: system.cpu: Running Insts:      4870000000
2440000041000: system.cpu: Running Insts:      4880000000
2445000041000: system.cpu: Running Insts:      4890000000
2450000041000: system.cpu: Running Insts:      4900000000
2455000041000: system.cpu: Running Insts:      4910000000
2460000041000: system.cpu: Running Insts:      4920000000
2465000041000: system.cpu: Running Insts:      4930000000
2470000041000: system.cpu: Running Insts:      4940000000
2475000041000: system.cpu: Running Insts:      4950000000
2480000041000: system.cpu: Running Insts:      4960000000
2485000041000: system.cpu: Running Insts:      4970000000
2490000041000: system.cpu: Running Insts:      4980000000
2495000041000: system.cpu: Running Insts:      4990000000
2500000041000: system.cpu: Running Insts:      5000000000
2505000041000: system.cpu: Running Insts:      5010000000
2510000041000: system.cpu: Running Insts:      5020000000
2515000041000: system.cpu: Running Insts:      5030000000
2520000041000: system.cpu: Running Insts:      5040000000
2525000041000: system.cpu: Running Insts:      5050000000
2530000041000: system.cpu: Running Insts:      5060000000
2535000041000: system.cpu: Running Insts:      5070000000
2540000041000: system.cpu: Running Insts:      5080000000
2545000041000: system.cpu: Running Insts:      5090000000
2550000041000: system.cpu: Running Insts:      5100000000
2555000041000: system.cpu: Running Insts:      5110000000
2560000041000: system.cpu: Running Insts:      5120000000
2565000041000: system.cpu: Running Insts:      5130000000
2570000041000: system.cpu: Running Insts:      5140000000
2575000041000: system.cpu: Running Insts:      5150000000
2580000041000: system.cpu: Running Insts:      5160000000
2585000041000: system.cpu: Running Insts:      5170000000
2590000041000: system.cpu: Running Insts:      5180000000
2595000041000: system.cpu: Running Insts:      5190000000
2600000041000: system.cpu: Running Insts:      5200000000
2605000041000: system.cpu: Running Insts:      5210000000
2610000041000: system.cpu: Running Insts:      5220000000
2615000041000: system.cpu: Running Insts:      5230000000
2620000041000: system.cpu: Running Insts:      5240000000
2625000041000: system.cpu: Running Insts:      5250000000
2630000041000: system.cpu: Running Insts:      5260000000
2635000041000: system.cpu: Running Insts:      5270000000
2640000041000: system.cpu: Running Insts:      5280000000
2645000041000: system.cpu: Running Insts:      5290000000
2650000041000: system.cpu: Running Insts:      5300000000
2655000041000: system.cpu: Running Insts:      5310000000
2660000041000: system.cpu: Running Insts:      5320000000
2665000041000: system.cpu: Running Insts:      5330000000
2670000041000: system.cpu: Running Insts:      5340000000
2675000041000: system.cpu: Running Insts:      5350000000
2680000041000: system.cpu: Running Insts:      5360000000
2685000041000: system.cpu: Running Insts:      5370000000
2690000041000: system.cpu: Running Insts:      5380000000
2695000041000: system.cpu: Running Insts:      5390000000
2700000041000: system.cpu: Running Insts:      5400000000
2705000041000: system.cpu: Running Insts:      5410000000
2710000041000: system.cpu: Running Insts:      5420000000
2715000041000: system.cpu: Running Insts:      5430000000
2720000041000: system.cpu: Running Insts:      5440000000
2725000041000: system.cpu: Running Insts:      5450000000
2730000041000: system.cpu: Running Insts:      5460000000
2735000041000: system.cpu: Running Insts:      5470000000
2740000041000: system.cpu: Running Insts:      5480000000
2745000041000: system.cpu: Running Insts:      5490000000
2750000041000: system.cpu: Running Insts:      5500000000
2755000041000: system.cpu: Running Insts:      5510000000
2760000041000: system.cpu: Running Insts:      5520000000
2765000041000: system.cpu: Running Insts:      5530000000
2770000041000: system.cpu: Running Insts:      5540000000
2775000041000: system.cpu: Running Insts:      5550000000
2780000041000: system.cpu: Running Insts:      5560000000
2785000041000: system.cpu: Running Insts:      5570000000
2790000041000: system.cpu: Running Insts:      5580000000
2795000041000: system.cpu: Running Insts:      5590000000
2800000041000: system.cpu: Running Insts:      5600000000
2805000041000: system.cpu: Running Insts:      5610000000
2810000041000: system.cpu: Running Insts:      5620000000
2815000041000: system.cpu: Running Insts:      5630000000
2820000041000: system.cpu: Running Insts:      5640000000
2825000041000: system.cpu: Running Insts:      5650000000
2830000041000: system.cpu: Running Insts:      5660000000
2835000041000: system.cpu: Running Insts:      5670000000
2840000041000: system.cpu: Running Insts:      5680000000
2845000041000: system.cpu: Running Insts:      5690000000
2850000041000: system.cpu: Running Insts:      5700000000
2855000041000: system.cpu: Running Insts:      5710000000
2860000041000: system.cpu: Running Insts:      5720000000
2865000041000: system.cpu: Running Insts:      5730000000
2870000041000: system.cpu: Running Insts:      5740000000
2875000041000: system.cpu: Running Insts:      5750000000
2880000041000: system.cpu: Running Insts:      5760000000
2885000041000: system.cpu: Running Insts:      5770000000
2890000041000: system.cpu: Running Insts:      5780000000
2895000041000: system.cpu: Running Insts:      5790000000
2900000041000: system.cpu: Running Insts:      5800000000
2905000041000: system.cpu: Running Insts:      5810000000
2910000041000: system.cpu: Running Insts:      5820000000
2915000041000: system.cpu: Running Insts:      5830000000
2920000041000: system.cpu: Running Insts:      5840000000
2925000041000: system.cpu: Running Insts:      5850000000
2930000041000: system.cpu: Running Insts:      5860000000
2935000041000: system.cpu: Running Insts:      5870000000
2940000041000: system.cpu: Running Insts:      5880000000
2945000041000: system.cpu: Running Insts:      5890000000
2950000041000: system.cpu: Running Insts:      5900000000
2955000041000: system.cpu: Running Insts:      5910000000
2960000041000: system.cpu: Running Insts:      5920000000
2965000041000: system.cpu: Running Insts:      5930000000
2970000041000: system.cpu: Running Insts:      5940000000
2975000041000: system.cpu: Running Insts:      5950000000
2980000041000: system.cpu: Running Insts:      5960000000
2985000041000: system.cpu: Running Insts:      5970000000
2990000041000: system.cpu: Running Insts:      5980000000
2995000041000: system.cpu: Running Insts:      5990000000
3000000041000: system.cpu: Running Insts:      6000000000
3005000041000: system.cpu: Running Insts:      6010000000
3010000041000: system.cpu: Running Insts:      6020000000
3015000041000: system.cpu: Running Insts:      6030000000
3020000041000: system.cpu: Running Insts:      6040000000
3025000041000: system.cpu: Running Insts:      6050000000
3030000041000: system.cpu: Running Insts:      6060000000
3035000041000: system.cpu: Running Insts:      6070000000
3040000041000: system.cpu: Running Insts:      6080000000
3045000041000: system.cpu: Running Insts:      6090000000
3050000041000: system.cpu: Running Insts:      6100000000
3055000041000: system.cpu: Running Insts:      6110000000
3060000041000: system.cpu: Running Insts:      6120000000
3065000041000: system.cpu: Running Insts:      6130000000
3070000041000: system.cpu: Running Insts:      6140000000
3075000041000: system.cpu: Running Insts:      6150000000
3080000041000: system.cpu: Running Insts:      6160000000
3085000041000: system.cpu: Running Insts:      6170000000
3090000041000: system.cpu: Running Insts:      6180000000
3095000041000: system.cpu: Running Insts:      6190000000
3100000041000: system.cpu: Running Insts:      6200000000
3105000041000: system.cpu: Running Insts:      6210000000
3110000041000: system.cpu: Running Insts:      6220000000
3115000041000: system.cpu: Running Insts:      6230000000
3120000041000: system.cpu: Running Insts:      6240000000
3125000041000: system.cpu: Running Insts:      6250000000
3130000041000: system.cpu: Running Insts:      6260000000
3135000041000: system.cpu: Running Insts:      6270000000
3140000041000: system.cpu: Running Insts:      6280000000
3145000041000: system.cpu: Running Insts:      6290000000
3150000041000: system.cpu: Running Insts:      6300000000
3155000041000: system.cpu: Running Insts:      6310000000
3160000041000: system.cpu: Running Insts:      6320000000
3165000041000: system.cpu: Running Insts:      6330000000
3170000041000: system.cpu: Running Insts:      6340000000
3175000041000: system.cpu: Running Insts:      6350000000
3180000041000: system.cpu: Running Insts:      6360000000
3185000041000: system.cpu: Running Insts:      6370000000
3190000041000: system.cpu: Running Insts:      6380000000
3195000041000: system.cpu: Running Insts:      6390000000
3200000041000: system.cpu: Running Insts:      6400000000
3205000041000: system.cpu: Running Insts:      6410000000
3210000041000: system.cpu: Running Insts:      6420000000
3215000041000: system.cpu: Running Insts:      6430000000
3220000041000: system.cpu: Running Insts:      6440000000
3225000041000: system.cpu: Running Insts:      6450000000
3230000041000: system.cpu: Running Insts:      6460000000
3235000041000: system.cpu: Running Insts:      6470000000
3240000041000: system.cpu: Running Insts:      6480000000
3245000041000: system.cpu: Running Insts:      6490000000
3250000041000: system.cpu: Running Insts:      6500000000
3255000041000: system.cpu: Running Insts:      6510000000
3260000041000: system.cpu: Running Insts:      6520000000
3265000041000: system.cpu: Running Insts:      6530000000
3270000041000: system.cpu: Running Insts:      6540000000
3275000041000: system.cpu: Running Insts:      6550000000
3280000041000: system.cpu: Running Insts:      6560000000
3285000041000: system.cpu: Running Insts:      6570000000
3290000041000: system.cpu: Running Insts:      6580000000
3295000041000: system.cpu: Running Insts:      6590000000
3300000041000: system.cpu: Running Insts:      6600000000
3305000041000: system.cpu: Running Insts:      6610000000
3310000041000: system.cpu: Running Insts:      6620000000
3315000041000: system.cpu: Running Insts:      6630000000
3320000041000: system.cpu: Running Insts:      6640000000
3325000041000: system.cpu: Running Insts:      6650000000
3330000041000: system.cpu: Running Insts:      6660000000
3335000041000: system.cpu: Running Insts:      6670000000
3340000041000: system.cpu: Running Insts:      6680000000
3345000041000: system.cpu: Running Insts:      6690000000
3350000041000: system.cpu: Running Insts:      6700000000
3355000041000: system.cpu: Running Insts:      6710000000
3360000041000: system.cpu: Running Insts:      6720000000
3365000041000: system.cpu: Running Insts:      6730000000
3370000041000: system.cpu: Running Insts:      6740000000
3375000041000: system.cpu: Running Insts:      6750000000
3380000041000: system.cpu: Running Insts:      6760000000
3385000041000: system.cpu: Running Insts:      6770000000
3390000041000: system.cpu: Running Insts:      6780000000
3395000041000: system.cpu: Running Insts:      6790000000
3400000041000: system.cpu: Running Insts:      6800000000
3405000041000: system.cpu: Running Insts:      6810000000
3410000041000: system.cpu: Running Insts:      6820000000
3415000041000: system.cpu: Running Insts:      6830000000
3420000041000: system.cpu: Running Insts:      6840000000
3425000041000: system.cpu: Running Insts:      6850000000
3430000041000: system.cpu: Running Insts:      6860000000
3435000041000: system.cpu: Running Insts:      6870000000
3440000041000: system.cpu: Running Insts:      6880000000
3445000041000: system.cpu: Running Insts:      6890000000
3450000041000: system.cpu: Running Insts:      6900000000
3455000041000: system.cpu: Running Insts:      6910000000
3460000041000: system.cpu: Running Insts:      6920000000
3465000041000: system.cpu: Running Insts:      6930000000
3470000041000: system.cpu: Running Insts:      6940000000
3475000041000: system.cpu: Running Insts:      6950000000
3480000041000: system.cpu: Running Insts:      6960000000
3485000041000: system.cpu: Running Insts:      6970000000
3490000041000: system.cpu: Running Insts:      6980000000
3495000041000: system.cpu: Running Insts:      6990000000
3500000041000: system.cpu: Running Insts:      7000000000
3505000041000: system.cpu: Running Insts:      7010000000
3510000041000: system.cpu: Running Insts:      7020000000
3515000041000: system.cpu: Running Insts:      7030000000
3520000041000: system.cpu: Running Insts:      7040000000
3525000041000: system.cpu: Running Insts:      7050000000
3530000041000: system.cpu: Running Insts:      7060000000
3535000041000: system.cpu: Running Insts:      7070000000
3540000041000: system.cpu: Running Insts:      7080000000
3545000041000: system.cpu: Running Insts:      7090000000
3550000041000: system.cpu: Running Insts:      7100000000
3555000041000: system.cpu: Running Insts:      7110000000
3560000041000: system.cpu: Running Insts:      7120000000
3565000041000: system.cpu: Running Insts:      7130000000
3570000041000: system.cpu: Running Insts:      7140000000
3575000041000: system.cpu: Running Insts:      7150000000
3580000041000: system.cpu: Running Insts:      7160000000
3585000041000: system.cpu: Running Insts:      7170000000
3590000041000: system.cpu: Running Insts:      7180000000
3595000041000: system.cpu: Running Insts:      7190000000
3600000041000: system.cpu: Running Insts:      7200000000
3605000041000: system.cpu: Running Insts:      7210000000
3610000041000: system.cpu: Running Insts:      7220000000
3615000041000: system.cpu: Running Insts:      7230000000
3620000041000: system.cpu: Running Insts:      7240000000
3625000041000: system.cpu: Running Insts:      7250000000
3630000041000: system.cpu: Running Insts:      7260000000
3635000041000: system.cpu: Running Insts:      7270000000
3640000041000: system.cpu: Running Insts:      7280000000
3645000041000: system.cpu: Running Insts:      7290000000
3650000041000: system.cpu: Running Insts:      7300000000
3655000041000: system.cpu: Running Insts:      7310000000
3660000041000: system.cpu: Running Insts:      7320000000
3665000041000: system.cpu: Running Insts:      7330000000
3670000041000: system.cpu: Running Insts:      7340000000
3675000041000: system.cpu: Running Insts:      7350000000
3680000041000: system.cpu: Running Insts:      7360000000
3685000041000: system.cpu: Running Insts:      7370000000
3690000041000: system.cpu: Running Insts:      7380000000
3695000041000: system.cpu: Running Insts:      7390000000
3700000041000: system.cpu: Running Insts:      7400000000
3705000041000: system.cpu: Running Insts:      7410000000
3710000041000: system.cpu: Running Insts:      7420000000
3715000041000: system.cpu: Running Insts:      7430000000
3720000041000: system.cpu: Running Insts:      7440000000
3725000041000: system.cpu: Running Insts:      7450000000
3730000041000: system.cpu: Running Insts:      7460000000
3735000041000: system.cpu: Running Insts:      7470000000
3740000041000: system.cpu: Running Insts:      7480000000
3745000041000: system.cpu: Running Insts:      7490000000
3750000041000: system.cpu: Running Insts:      7500000000
3755000041000: system.cpu: Running Insts:      7510000000
3760000041000: system.cpu: Running Insts:      7520000000
3765000041000: system.cpu: Running Insts:      7530000000
3770000041000: system.cpu: Running Insts:      7540000000
3775000041000: system.cpu: Running Insts:      7550000000
3780000041000: system.cpu: Running Insts:      7560000000
3785000041000: system.cpu: Running Insts:      7570000000
3790000041000: system.cpu: Running Insts:      7580000000
3795000041000: system.cpu: Running Insts:      7590000000
3800000041000: system.cpu: Running Insts:      7600000000
3805000041000: system.cpu: Running Insts:      7610000000
3810000041000: system.cpu: Running Insts:      7620000000
3815000041000: system.cpu: Running Insts:      7630000000
3820000041000: system.cpu: Running Insts:      7640000000
3825000041000: system.cpu: Running Insts:      7650000000
3830000041000: system.cpu: Running Insts:      7660000000
3835000041000: system.cpu: Running Insts:      7670000000
3840000041000: system.cpu: Running Insts:      7680000000
3845000041000: system.cpu: Running Insts:      7690000000
3850000041000: system.cpu: Running Insts:      7700000000
3855000041000: system.cpu: Running Insts:      7710000000
3860000041000: system.cpu: Running Insts:      7720000000
3865000041000: system.cpu: Running Insts:      7730000000
3870000041000: system.cpu: Running Insts:      7740000000
3875000041000: system.cpu: Running Insts:      7750000000
3880000041000: system.cpu: Running Insts:      7760000000
3885000041000: system.cpu: Running Insts:      7770000000
3890000041000: system.cpu: Running Insts:      7780000000
3895000041000: system.cpu: Running Insts:      7790000000
3900000041000: system.cpu: Running Insts:      7800000000
3905000041000: system.cpu: Running Insts:      7810000000
3910000041000: system.cpu: Running Insts:      7820000000
3915000041000: system.cpu: Running Insts:      7830000000
3920000041000: system.cpu: Running Insts:      7840000000
3925000041000: system.cpu: Running Insts:      7850000000
3930000041000: system.cpu: Running Insts:      7860000000
3935000041000: system.cpu: Running Insts:      7870000000
3940000041000: system.cpu: Running Insts:      7880000000
3945000041000: system.cpu: Running Insts:      7890000000
3950000041000: system.cpu: Running Insts:      7900000000
3955000041000: system.cpu: Running Insts:      7910000000
3960000041000: system.cpu: Running Insts:      7920000000
3965000041000: system.cpu: Running Insts:      7930000000
3970000041000: system.cpu: Running Insts:      7940000000
3975000041000: system.cpu: Running Insts:      7950000000
3980000041000: system.cpu: Running Insts:      7960000000
3985000041000: system.cpu: Running Insts:      7970000000
3990000041000: system.cpu: Running Insts:      7980000000
3995000041000: system.cpu: Running Insts:      7990000000
4000000041000: system.cpu: Running Insts:      8000000000
4005000041000: system.cpu: Running Insts:      8010000000
4010000041000: system.cpu: Running Insts:      8020000000
4015000041000: system.cpu: Running Insts:      8030000000
4020000041000: system.cpu: Running Insts:      8040000000
4025000041000: system.cpu: Running Insts:      8050000000
4030000041000: system.cpu: Running Insts:      8060000000
4035000041000: system.cpu: Running Insts:      8070000000
4040000041000: system.cpu: Running Insts:      8080000000
4045000041000: system.cpu: Running Insts:      8090000000
4050000041000: system.cpu: Running Insts:      8100000000
4055000041000: system.cpu: Running Insts:      8110000000
4060000041000: system.cpu: Running Insts:      8120000000
4065000041000: system.cpu: Running Insts:      8130000000
4070000041000: system.cpu: Running Insts:      8140000000
4075000041000: system.cpu: Running Insts:      8150000000
4080000041000: system.cpu: Running Insts:      8160000000
4085000041000: system.cpu: Running Insts:      8170000000
4090000041000: system.cpu: Running Insts:      8180000000
4095000041000: system.cpu: Running Insts:      8190000000
4100000041000: system.cpu: Running Insts:      8200000000
4105000041000: system.cpu: Running Insts:      8210000000
4110000041000: system.cpu: Running Insts:      8220000000
4115000041000: system.cpu: Running Insts:      8230000000
4120000041000: system.cpu: Running Insts:      8240000000
4125000041000: system.cpu: Running Insts:      8250000000
4130000041000: system.cpu: Running Insts:      8260000000
4135000041000: system.cpu: Running Insts:      8270000000
4140000041000: system.cpu: Running Insts:      8280000000
4145000041000: system.cpu: Running Insts:      8290000000
4150000041000: system.cpu: Running Insts:      8300000000
4155000041000: system.cpu: Running Insts:      8310000000
4160000041000: system.cpu: Running Insts:      8320000000
4165000041000: system.cpu: Running Insts:      8330000000
4170000041000: system.cpu: Running Insts:      8340000000
4175000041000: system.cpu: Running Insts:      8350000000
4180000041000: system.cpu: Running Insts:      8360000000
4185000041000: system.cpu: Running Insts:      8370000000
4190000041000: system.cpu: Running Insts:      8380000000
4195000041000: system.cpu: Running Insts:      8390000000
4200000041000: system.cpu: Running Insts:      8400000000
4205000041000: system.cpu: Running Insts:      8410000000
4210000041000: system.cpu: Running Insts:      8420000000
4215000041000: system.cpu: Running Insts:      8430000000
4220000041000: system.cpu: Running Insts:      8440000000
4225000041000: system.cpu: Running Insts:      8450000000
4230000041000: system.cpu: Running Insts:      8460000000
4235000041000: system.cpu: Running Insts:      8470000000
4240000041000: system.cpu: Running Insts:      8480000000
4245000041000: system.cpu: Running Insts:      8490000000
4250000041000: system.cpu: Running Insts:      8500000000
4255000041000: system.cpu: Running Insts:      8510000000
4260000041000: system.cpu: Running Insts:      8520000000
4265000041000: system.cpu: Running Insts:      8530000000
4270000041000: system.cpu: Running Insts:      8540000000
4275000041000: system.cpu: Running Insts:      8550000000
4280000041000: system.cpu: Running Insts:      8560000000
4285000041000: system.cpu: Running Insts:      8570000000
4290000041000: system.cpu: Running Insts:      8580000000
4295000041000: system.cpu: Running Insts:      8590000000
4300000041000: system.cpu: Running Insts:      8600000000
4305000041000: system.cpu: Running Insts:      8610000000
4310000041000: system.cpu: Running Insts:      8620000000
4315000041000: system.cpu: Running Insts:      8630000000
4320000041000: system.cpu: Running Insts:      8640000000
4325000041000: system.cpu: Running Insts:      8650000000
4330000041000: system.cpu: Running Insts:      8660000000
4335000041000: system.cpu: Running Insts:      8670000000
4340000041000: system.cpu: Running Insts:      8680000000
4345000041000: system.cpu: Running Insts:      8690000000
4350000041000: system.cpu: Running Insts:      8700000000
4355000041000: system.cpu: Running Insts:      8710000000
4360000041000: system.cpu: Running Insts:      8720000000
4365000041000: system.cpu: Running Insts:      8730000000
4370000041000: system.cpu: Running Insts:      8740000000
4375000041000: system.cpu: Running Insts:      8750000000
4380000041000: system.cpu: Running Insts:      8760000000
4385000041000: system.cpu: Running Insts:      8770000000
4390000041000: system.cpu: Running Insts:      8780000000
4395000041000: system.cpu: Running Insts:      8790000000
4400000041000: system.cpu: Running Insts:      8800000000
4405000041000: system.cpu: Running Insts:      8810000000
4410000041000: system.cpu: Running Insts:      8820000000
4415000041000: system.cpu: Running Insts:      8830000000
4420000041000: system.cpu: Running Insts:      8840000000
4425000041000: system.cpu: Running Insts:      8850000000
4430000041000: system.cpu: Running Insts:      8860000000
4435000041000: system.cpu: Running Insts:      8870000000
4440000041000: system.cpu: Running Insts:      8880000000
4445000041000: system.cpu: Running Insts:      8890000000
4450000041000: system.cpu: Running Insts:      8900000000
4455000041000: system.cpu: Running Insts:      8910000000
4460000041000: system.cpu: Running Insts:      8920000000
4465000041000: system.cpu: Running Insts:      8930000000
4470000041000: system.cpu: Running Insts:      8940000000
4475000041000: system.cpu: Running Insts:      8950000000
4480000041000: system.cpu: Running Insts:      8960000000
4485000041000: system.cpu: Running Insts:      8970000000
4490000041000: system.cpu: Running Insts:      8980000000
4495000041000: system.cpu: Running Insts:      8990000000
4500000041000: system.cpu: Running Insts:      9000000000
4505000041000: system.cpu: Running Insts:      9010000000
4510000041000: system.cpu: Running Insts:      9020000000
4515000041000: system.cpu: Running Insts:      9030000000
4520000041000: system.cpu: Running Insts:      9040000000
4525000041000: system.cpu: Running Insts:      9050000000
4530000041000: system.cpu: Running Insts:      9060000000
4535000041000: system.cpu: Running Insts:      9070000000
4540000041000: system.cpu: Running Insts:      9080000000
4545000041000: system.cpu: Running Insts:      9090000000
4550000041000: system.cpu: Running Insts:      9100000000
4555000041000: system.cpu: Running Insts:      9110000000
4560000041000: system.cpu: Running Insts:      9120000000
4565000041000: system.cpu: Running Insts:      9130000000
4570000041000: system.cpu: Running Insts:      9140000000
4575000041000: system.cpu: Running Insts:      9150000000
4580000041000: system.cpu: Running Insts:      9160000000
4585000041000: system.cpu: Running Insts:      9170000000
4590000041000: system.cpu: Running Insts:      9180000000
4595000041000: system.cpu: Running Insts:      9190000000
4600000041000: system.cpu: Running Insts:      9200000000
4605000041000: system.cpu: Running Insts:      9210000000
4610000041000: system.cpu: Running Insts:      9220000000
4615000041000: system.cpu: Running Insts:      9230000000
4620000041000: system.cpu: Running Insts:      9240000000
4625000041000: system.cpu: Running Insts:      9250000000
4630000041000: system.cpu: Running Insts:      9260000000
4635000041000: system.cpu: Running Insts:      9270000000
4640000041000: system.cpu: Running Insts:      9280000000
4645000041000: system.cpu: Running Insts:      9290000000
4650000041000: system.cpu: Running Insts:      9300000000
4655000041000: system.cpu: Running Insts:      9310000000
4660000041000: system.cpu: Running Insts:      9320000000
4665000041000: system.cpu: Running Insts:      9330000000
4670000041000: system.cpu: Running Insts:      9340000000
4675000041000: system.cpu: Running Insts:      9350000000
4680000041000: system.cpu: Running Insts:      9360000000
4685000041000: system.cpu: Running Insts:      9370000000
4690000041000: system.cpu: Running Insts:      9380000000
4695000041000: system.cpu: Running Insts:      9390000000
4700000041000: system.cpu: Running Insts:      9400000000
4705000041000: system.cpu: Running Insts:      9410000000
4710000041000: system.cpu: Running Insts:      9420000000
4715000041000: system.cpu: Running Insts:      9430000000
4720000041000: system.cpu: Running Insts:      9440000000
4725000041000: system.cpu: Running Insts:      9450000000
4730000041000: system.cpu: Running Insts:      9460000000
4735000041000: system.cpu: Running Insts:      9470000000
4740000041000: system.cpu: Running Insts:      9480000000
4745000041000: system.cpu: Running Insts:      9490000000
4750000041000: system.cpu: Running Insts:      9500000000
4755000041000: system.cpu: Running Insts:      9510000000
4760000041000: system.cpu: Running Insts:      9520000000
4765000041000: system.cpu: Running Insts:      9530000000
4770000041000: system.cpu: Running Insts:      9540000000
4775000041000: system.cpu: Running Insts:      9550000000
4780000041000: system.cpu: Running Insts:      9560000000
4785000041000: system.cpu: Running Insts:      9570000000
4790000041000: system.cpu: Running Insts:      9580000000
4795000041000: system.cpu: Running Insts:      9590000000
4800000041000: system.cpu: Running Insts:      9600000000
4805000041000: system.cpu: Running Insts:      9610000000
4810000041000: system.cpu: Running Insts:      9620000000
4815000041000: system.cpu: Running Insts:      9630000000
4820000041000: system.cpu: Running Insts:      9640000000
4825000041000: system.cpu: Running Insts:      9650000000
4830000041000: system.cpu: Running Insts:      9660000000
4835000041000: system.cpu: Running Insts:      9670000000
4840000041000: system.cpu: Running Insts:      9680000000
4845000041000: system.cpu: Running Insts:      9690000000
4850000041000: system.cpu: Running Insts:      9700000000
4855000041000: system.cpu: Running Insts:      9710000000
4860000041000: system.cpu: Running Insts:      9720000000
4865000041000: system.cpu: Running Insts:      9730000000
4870000041000: system.cpu: Running Insts:      9740000000
4875000041000: system.cpu: Running Insts:      9750000000
4880000041000: system.cpu: Running Insts:      9760000000
4885000041000: system.cpu: Running Insts:      9770000000
4890000041000: system.cpu: Running Insts:      9780000000
4895000041000: system.cpu: Running Insts:      9790000000
4900000041000: system.cpu: Running Insts:      9800000000
4905000041000: system.cpu: Running Insts:      9810000000
4910000041000: system.cpu: Running Insts:      9820000000
4915000041000: system.cpu: Running Insts:      9830000000
4920000041000: system.cpu: Running Insts:      9840000000
4925000041000: system.cpu: Running Insts:      9850000000
4930000041000: system.cpu: Running Insts:      9860000000
4935000041000: system.cpu: Running Insts:      9870000000
4940000041000: system.cpu: Running Insts:      9880000000
4945000041000: system.cpu: Running Insts:      9890000000
4950000041000: system.cpu: Running Insts:      9900000000
4955000041000: system.cpu: Running Insts:      9910000000
4960000041000: system.cpu: Running Insts:      9920000000
4965000041000: system.cpu: Running Insts:      9930000000
4970000041000: system.cpu: Running Insts:      9940000000
4975000041000: system.cpu: Running Insts:      9950000000
4980000041000: system.cpu: Running Insts:      9960000000
4985000041000: system.cpu: Running Insts:      9970000000
4990000041000: system.cpu: Running Insts:      9980000000
4995000041000: system.cpu: Running Insts:      9990000000
5000000041000: system.cpu: Running Insts:     10000000000
5005000041000: system.cpu: Running Insts:     10010000000
5010000041000: system.cpu: Running Insts:     10020000000
5015000041000: system.cpu: Running Insts:     10030000000
5020000041000: system.cpu: Running Insts:     10040000000
5025000041000: system.cpu: Running Insts:     10050000000
5030000041000: system.cpu: Running Insts:     10060000000
5035000041000: system.cpu: Running Insts:     10070000000
5040000041000: system.cpu: Running Insts:     10080000000
5045000041000: system.cpu: Running Insts:     10090000000
5050000041000: system.cpu: Running Insts:     10100000000
5055000041000: system.cpu: Running Insts:     10110000000
5060000041000: system.cpu: Running Insts:     10120000000
5065000041000: system.cpu: Running Insts:     10130000000
5070000041000: system.cpu: Running Insts:     10140000000
5075000041000: system.cpu: Running Insts:     10150000000
5080000041000: system.cpu: Running Insts:     10160000000
5085000041000: system.cpu: Running Insts:     10170000000
5090000041000: system.cpu: Running Insts:     10180000000
5095000041000: system.cpu: Running Insts:     10190000000
5100000041000: system.cpu: Running Insts:     10200000000
5105000041000: system.cpu: Running Insts:     10210000000
5110000041000: system.cpu: Running Insts:     10220000000
5115000041000: system.cpu: Running Insts:     10230000000
5120000041000: system.cpu: Running Insts:     10240000000
5125000041000: system.cpu: Running Insts:     10250000000
5130000041000: system.cpu: Running Insts:     10260000000
5135000041000: system.cpu: Running Insts:     10270000000
5140000041000: system.cpu: Running Insts:     10280000000
5145000041000: system.cpu: Running Insts:     10290000000
5150000041000: system.cpu: Running Insts:     10300000000
5155000041000: system.cpu: Running Insts:     10310000000
5160000041000: system.cpu: Running Insts:     10320000000
5165000041000: system.cpu: Running Insts:     10330000000
5170000041000: system.cpu: Running Insts:     10340000000
5175000041000: system.cpu: Running Insts:     10350000000
5180000041000: system.cpu: Running Insts:     10360000000
5185000041000: system.cpu: Running Insts:     10370000000
5190000041000: system.cpu: Running Insts:     10380000000
5195000041000: system.cpu: Running Insts:     10390000000
5200000041000: system.cpu: Running Insts:     10400000000
5205000041000: system.cpu: Running Insts:     10410000000
5210000041000: system.cpu: Running Insts:     10420000000
5215000041000: system.cpu: Running Insts:     10430000000
5220000041000: system.cpu: Running Insts:     10440000000
5225000041000: system.cpu: Running Insts:     10450000000
5230000041000: system.cpu: Running Insts:     10460000000
5235000041000: system.cpu: Running Insts:     10470000000
5240000041000: system.cpu: Running Insts:     10480000000
5245000041000: system.cpu: Running Insts:     10490000000
5250000041000: system.cpu: Running Insts:     10500000000
5255000041000: system.cpu: Running Insts:     10510000000
5260000041000: system.cpu: Running Insts:     10520000000
5265000041000: system.cpu: Running Insts:     10530000000
5270000041000: system.cpu: Running Insts:     10540000000
5275000041000: system.cpu: Running Insts:     10550000000
5280000041000: system.cpu: Running Insts:     10560000000
5285000041000: system.cpu: Running Insts:     10570000000
5290000041000: system.cpu: Running Insts:     10580000000
5295000041000: system.cpu: Running Insts:     10590000000
5300000041000: system.cpu: Running Insts:     10600000000
5305000041000: system.cpu: Running Insts:     10610000000
5310000041000: system.cpu: Running Insts:     10620000000
5315000041000: system.cpu: Running Insts:     10630000000
5320000041000: system.cpu: Running Insts:     10640000000
5325000041000: system.cpu: Running Insts:     10650000000
5330000041000: system.cpu: Running Insts:     10660000000
5335000041000: system.cpu: Running Insts:     10670000000
5340000041000: system.cpu: Running Insts:     10680000000
5345000041000: system.cpu: Running Insts:     10690000000
5350000041000: system.cpu: Running Insts:     10700000000
5355000041000: system.cpu: Running Insts:     10710000000
5360000041000: system.cpu: Running Insts:     10720000000
5365000041000: system.cpu: Running Insts:     10730000000
5370000041000: system.cpu: Running Insts:     10740000000
5375000041000: system.cpu: Running Insts:     10750000000
5380000041000: system.cpu: Running Insts:     10760000000
5385000041000: system.cpu: Running Insts:     10770000000
5390000041000: system.cpu: Running Insts:     10780000000
5395000041000: system.cpu: Running Insts:     10790000000
5400000041000: system.cpu: Running Insts:     10800000000
5405000041000: system.cpu: Running Insts:     10810000000
5410000041000: system.cpu: Running Insts:     10820000000
5415000041000: system.cpu: Running Insts:     10830000000
5420000041000: system.cpu: Running Insts:     10840000000
5425000041000: system.cpu: Running Insts:     10850000000
5430000041000: system.cpu: Running Insts:     10860000000
5435000041000: system.cpu: Running Insts:     10870000000
5440000041000: system.cpu: Running Insts:     10880000000
5445000041000: system.cpu: Running Insts:     10890000000
5450000041000: system.cpu: Running Insts:     10900000000
5455000041000: system.cpu: Running Insts:     10910000000
5460000041000: system.cpu: Running Insts:     10920000000
5465000041000: system.cpu: Running Insts:     10930000000
5470000041000: system.cpu: Running Insts:     10940000000
5475000041000: system.cpu: Running Insts:     10950000000
5480000041000: system.cpu: Running Insts:     10960000000
5485000041000: system.cpu: Running Insts:     10970000000
5490000041000: system.cpu: Running Insts:     10980000000
5495000041000: system.cpu: Running Insts:     10990000000
5500000041000: system.cpu: Running Insts:     11000000000
5505000041000: system.cpu: Running Insts:     11010000000
5510000041000: system.cpu: Running Insts:     11020000000
5515000041000: system.cpu: Running Insts:     11030000000
5520000041000: system.cpu: Running Insts:     11040000000
5525000041000: system.cpu: Running Insts:     11050000000
5530000041000: system.cpu: Running Insts:     11060000000
5535000041000: system.cpu: Running Insts:     11070000000
5540000041000: system.cpu: Running Insts:     11080000000
5545000041000: system.cpu: Running Insts:     11090000000
5550000041000: system.cpu: Running Insts:     11100000000
5555000041000: system.cpu: Running Insts:     11110000000
5560000041000: system.cpu: Running Insts:     11120000000
5565000041000: system.cpu: Running Insts:     11130000000
5570000041000: system.cpu: Running Insts:     11140000000
5575000041000: system.cpu: Running Insts:     11150000000
5580000041000: system.cpu: Running Insts:     11160000000
5585000041000: system.cpu: Running Insts:     11170000000
5590000041000: system.cpu: Running Insts:     11180000000
5595000041000: system.cpu: Running Insts:     11190000000
5600000041000: system.cpu: Running Insts:     11200000000
5605000041000: system.cpu: Running Insts:     11210000000
5610000041000: system.cpu: Running Insts:     11220000000
5615000041000: system.cpu: Running Insts:     11230000000
5620000041000: system.cpu: Running Insts:     11240000000
5625000041000: system.cpu: Running Insts:     11250000000
5630000041000: system.cpu: Running Insts:     11260000000
5635000041000: system.cpu: Running Insts:     11270000000
5640000041000: system.cpu: Running Insts:     11280000000
5645000041000: system.cpu: Running Insts:     11290000000
5650000041000: system.cpu: Running Insts:     11300000000
5655000041000: system.cpu: Running Insts:     11310000000
5660000041000: system.cpu: Running Insts:     11320000000
5665000041000: system.cpu: Running Insts:     11330000000
5670000041000: system.cpu: Running Insts:     11340000000
5675000041000: system.cpu: Running Insts:     11350000000
5680000041000: system.cpu: Running Insts:     11360000000
5685000041000: system.cpu: Running Insts:     11370000000
5690000041000: system.cpu: Running Insts:     11380000000
5695000041000: system.cpu: Running Insts:     11390000000
5700000041000: system.cpu: Running Insts:     11400000000
5705000041000: system.cpu: Running Insts:     11410000000
5710000041000: system.cpu: Running Insts:     11420000000
5715000041000: system.cpu: Running Insts:     11430000000
5720000041000: system.cpu: Running Insts:     11440000000
5725000041000: system.cpu: Running Insts:     11450000000
5730000041000: system.cpu: Running Insts:     11460000000
5735000041000: system.cpu: Running Insts:     11470000000
5740000041000: system.cpu: Running Insts:     11480000000
5745000041000: system.cpu: Running Insts:     11490000000
5750000041000: system.cpu: Running Insts:     11500000000
5755000041000: system.cpu: Running Insts:     11510000000
5760000041000: system.cpu: Running Insts:     11520000000
5765000041000: system.cpu: Running Insts:     11530000000
5770000041000: system.cpu: Running Insts:     11540000000
5775000041000: system.cpu: Running Insts:     11550000000
5780000041000: system.cpu: Running Insts:     11560000000
5785000041000: system.cpu: Running Insts:     11570000000
5790000041000: system.cpu: Running Insts:     11580000000
5795000041000: system.cpu: Running Insts:     11590000000
5800000041000: system.cpu: Running Insts:     11600000000
5805000041000: system.cpu: Running Insts:     11610000000
5810000041000: system.cpu: Running Insts:     11620000000
5815000041000: system.cpu: Running Insts:     11630000000
5820000041000: system.cpu: Running Insts:     11640000000
5825000041000: system.cpu: Running Insts:     11650000000
5830000041000: system.cpu: Running Insts:     11660000000
5835000041000: system.cpu: Running Insts:     11670000000
5840000041000: system.cpu: Running Insts:     11680000000
5845000041000: system.cpu: Running Insts:     11690000000
5850000041000: system.cpu: Running Insts:     11700000000
5855000041000: system.cpu: Running Insts:     11710000000
5860000041000: system.cpu: Running Insts:     11720000000
5865000041000: system.cpu: Running Insts:     11730000000
5870000041000: system.cpu: Running Insts:     11740000000
5875000041000: system.cpu: Running Insts:     11750000000
5880000041000: system.cpu: Running Insts:     11760000000
5885000041000: system.cpu: Running Insts:     11770000000
5890000041000: system.cpu: Running Insts:     11780000000
5895000041000: system.cpu: Running Insts:     11790000000
5900000041000: system.cpu: Running Insts:     11800000000
5905000041000: system.cpu: Running Insts:     11810000000
5910000041000: system.cpu: Running Insts:     11820000000
5915000041000: system.cpu: Running Insts:     11830000000
5920000041000: system.cpu: Running Insts:     11840000000
5925000041000: system.cpu: Running Insts:     11850000000
5930000041000: system.cpu: Running Insts:     11860000000
5935000041000: system.cpu: Running Insts:     11870000000
5940000041000: system.cpu: Running Insts:     11880000000
5945000041000: system.cpu: Running Insts:     11890000000
5950000041000: system.cpu: Running Insts:     11900000000
5955000041000: system.cpu: Running Insts:     11910000000
5960000041000: system.cpu: Running Insts:     11920000000
5965000041000: system.cpu: Running Insts:     11930000000
5970000041000: system.cpu: Running Insts:     11940000000
5975000041000: system.cpu: Running Insts:     11950000000
5980000041000: system.cpu: Running Insts:     11960000000
5985000041000: system.cpu: Running Insts:     11970000000
5990000041000: system.cpu: Running Insts:     11980000000
5995000041000: system.cpu: Running Insts:     11990000000
6000000041000: system.cpu: Running Insts:     12000000000
6005000041000: system.cpu: Running Insts:     12010000000
6010000041000: system.cpu: Running Insts:     12020000000
6015000041000: system.cpu: Running Insts:     12030000000
6020000041000: system.cpu: Running Insts:     12040000000
6025000041000: system.cpu: Running Insts:     12050000000
6030000041000: system.cpu: Running Insts:     12060000000
6035000041000: system.cpu: Running Insts:     12070000000
6040000041000: system.cpu: Running Insts:     12080000000
6045000041000: system.cpu: Running Insts:     12090000000
6050000041000: system.cpu: Running Insts:     12100000000
6055000041000: system.cpu: Running Insts:     12110000000
6060000041000: system.cpu: Running Insts:     12120000000
6065000041000: system.cpu: Running Insts:     12130000000
6070000041000: system.cpu: Running Insts:     12140000000
6075000041000: system.cpu: Running Insts:     12150000000
6080000041000: system.cpu: Running Insts:     12160000000
6085000041000: system.cpu: Running Insts:     12170000000
6090000041000: system.cpu: Running Insts:     12180000000
6095000041000: system.cpu: Running Insts:     12190000000
6100000041000: system.cpu: Running Insts:     12200000000
6105000041000: system.cpu: Running Insts:     12210000000
6110000041000: system.cpu: Running Insts:     12220000000
6115000041000: system.cpu: Running Insts:     12230000000
6120000041000: system.cpu: Running Insts:     12240000000
6125000041000: system.cpu: Running Insts:     12250000000
6130000041000: system.cpu: Running Insts:     12260000000
6135000041000: system.cpu: Running Insts:     12270000000
6140000041000: system.cpu: Running Insts:     12280000000
6145000041000: system.cpu: Running Insts:     12290000000
6150000041000: system.cpu: Running Insts:     12300000000
6155000041000: system.cpu: Running Insts:     12310000000
6160000041000: system.cpu: Running Insts:     12320000000
6165000041000: system.cpu: Running Insts:     12330000000
6170000041000: system.cpu: Running Insts:     12340000000
6175000041000: system.cpu: Running Insts:     12350000000
6180000041000: system.cpu: Running Insts:     12360000000
6185000041000: system.cpu: Running Insts:     12370000000
6190000041000: system.cpu: Running Insts:     12380000000
6195000041000: system.cpu: Running Insts:     12390000000
6200000041000: system.cpu: Running Insts:     12400000000
6205000041000: system.cpu: Running Insts:     12410000000
6210000041000: system.cpu: Running Insts:     12420000000
6215000041000: system.cpu: Running Insts:     12430000000
6220000041000: system.cpu: Running Insts:     12440000000
6225000041000: system.cpu: Running Insts:     12450000000
6230000041000: system.cpu: Running Insts:     12460000000
6235000041000: system.cpu: Running Insts:     12470000000
6240000041000: system.cpu: Running Insts:     12480000000
6245000041000: system.cpu: Running Insts:     12490000000
6250000041000: system.cpu: Running Insts:     12500000000
6255000041000: system.cpu: Running Insts:     12510000000
6260000041000: system.cpu: Running Insts:     12520000000
6265000041000: system.cpu: Running Insts:     12530000000
6270000041000: system.cpu: Running Insts:     12540000000
6275000041000: system.cpu: Running Insts:     12550000000
6280000041000: system.cpu: Running Insts:     12560000000
6285000041000: system.cpu: Running Insts:     12570000000
6290000041000: system.cpu: Running Insts:     12580000000
6295000041000: system.cpu: Running Insts:     12590000000
6300000041000: system.cpu: Running Insts:     12600000000
6305000041000: system.cpu: Running Insts:     12610000000
6310000041000: system.cpu: Running Insts:     12620000000
6315000041000: system.cpu: Running Insts:     12630000000
6320000041000: system.cpu: Running Insts:     12640000000
6325000041000: system.cpu: Running Insts:     12650000000
6330000041000: system.cpu: Running Insts:     12660000000
6335000041000: system.cpu: Running Insts:     12670000000
6340000041000: system.cpu: Running Insts:     12680000000
6345000041000: system.cpu: Running Insts:     12690000000
6350000041000: system.cpu: Running Insts:     12700000000
6355000041000: system.cpu: Running Insts:     12710000000
6360000041000: system.cpu: Running Insts:     12720000000
6365000041000: system.cpu: Running Insts:     12730000000
6370000041000: system.cpu: Running Insts:     12740000000
6375000041000: system.cpu: Running Insts:     12750000000
6380000041000: system.cpu: Running Insts:     12760000000
6385000041000: system.cpu: Running Insts:     12770000000
6390000041000: system.cpu: Running Insts:     12780000000
6395000041000: system.cpu: Running Insts:     12790000000
6400000041000: system.cpu: Running Insts:     12800000000
6405000041000: system.cpu: Running Insts:     12810000000
6410000041000: system.cpu: Running Insts:     12820000000
6415000041000: system.cpu: Running Insts:     12830000000
6420000041000: system.cpu: Running Insts:     12840000000
6425000041000: system.cpu: Running Insts:     12850000000
6430000041000: system.cpu: Running Insts:     12860000000
6435000041000: system.cpu: Running Insts:     12870000000
6440000041000: system.cpu: Running Insts:     12880000000
6445000041000: system.cpu: Running Insts:     12890000000
6450000041000: system.cpu: Running Insts:     12900000000
6455000041000: system.cpu: Running Insts:     12910000000
6460000041000: system.cpu: Running Insts:     12920000000
6465000041000: system.cpu: Running Insts:     12930000000
6470000041000: system.cpu: Running Insts:     12940000000
6475000041000: system.cpu: Running Insts:     12950000000
6480000041000: system.cpu: Running Insts:     12960000000
6485000041000: system.cpu: Running Insts:     12970000000
6490000041000: system.cpu: Running Insts:     12980000000
6495000041000: system.cpu: Running Insts:     12990000000
6500000041000: system.cpu: Running Insts:     13000000000
6505000041000: system.cpu: Running Insts:     13010000000
6510000041000: system.cpu: Running Insts:     13020000000
6515000041000: system.cpu: Running Insts:     13030000000
6520000041000: system.cpu: Running Insts:     13040000000
6525000041000: system.cpu: Running Insts:     13050000000
6530000041000: system.cpu: Running Insts:     13060000000
6535000041000: system.cpu: Running Insts:     13070000000
6540000041000: system.cpu: Running Insts:     13080000000
6545000041000: system.cpu: Running Insts:     13090000000
6550000041000: system.cpu: Running Insts:     13100000000
6555000041000: system.cpu: Running Insts:     13110000000
6560000041000: system.cpu: Running Insts:     13120000000
6565000041000: system.cpu: Running Insts:     13130000000
6570000041000: system.cpu: Running Insts:     13140000000
6575000041000: system.cpu: Running Insts:     13150000000
6580000041000: system.cpu: Running Insts:     13160000000
6585000041000: system.cpu: Running Insts:     13170000000
6590000041000: system.cpu: Running Insts:     13180000000
6595000041000: system.cpu: Running Insts:     13190000000
6600000041000: system.cpu: Running Insts:     13200000000
6605000041000: system.cpu: Running Insts:     13210000000
6610000041000: system.cpu: Running Insts:     13220000000
6615000041000: system.cpu: Running Insts:     13230000000
6620000041000: system.cpu: Running Insts:     13240000000
6625000041000: system.cpu: Running Insts:     13250000000
6630000041000: system.cpu: Running Insts:     13260000000
6635000041000: system.cpu: Running Insts:     13270000000
6640000041000: system.cpu: Running Insts:     13280000000
6645000041000: system.cpu: Running Insts:     13290000000
6650000041000: system.cpu: Running Insts:     13300000000
6655000041000: system.cpu: Running Insts:     13310000000
6660000041000: system.cpu: Running Insts:     13320000000
6665000041000: system.cpu: Running Insts:     13330000000
6670000041000: system.cpu: Running Insts:     13340000000
6675000041000: system.cpu: Running Insts:     13350000000
6680000041000: system.cpu: Running Insts:     13360000000
6685000041000: system.cpu: Running Insts:     13370000000
6690000041000: system.cpu: Running Insts:     13380000000
6695000041000: system.cpu: Running Insts:     13390000000
6700000041000: system.cpu: Running Insts:     13400000000
6705000041000: system.cpu: Running Insts:     13410000000
6710000041000: system.cpu: Running Insts:     13420000000
6715000041000: system.cpu: Running Insts:     13430000000
[...]
  --------------------------------------------------------------
  Initialization seed trial #2 of 5; initialization seed = 493575237
  --------------------------------------------------------------
  Initialized k-means centers using random sampling: 15 centers
  Number of k-means iterations performed: 26
  BIC score: 125250
  Distortion: 111.124
  Distortions/cluster: 7.83062 4.73287 10.0429 12.3172 5.72592 8.39895 5.05922 0.845822 10.3546 5.93528 13.787 5.94031 6.88711 10.6218 2.64417 
  Variance: 0.0220922
  Variances/cluster: 0.0236575 0.0177261 0.02911 0.0310257 0.0364709 0.0249227 0.00605894 0.00488915 0.0215271 0.0292378 0.0353513 0.0278888 0.0255078 0.0358844 0.00789305 
  --------------------------------------------------------------
  Initialization seed trial #3 of 5; initialization seed = 493575238
  --------------------------------------------------------------
  Initialized k-means centers using random sampling: 15 centers
  Number of k-means iterations performed: 26
  BIC score: 120655
  Distortion: 124.583
  Distortions/cluster: 14.3507 7.19802 11.5056 10.9899 1.81671 17.1 6.9724 12.3227 1.69454 13.6915 0.621182 1.04737 5.3942 9.11369 10.7644 
  Variance: 0.024768
  Variances/cluster: 0.0350874 0.0190424 0.0299624 0.0366329 0.00564197 0.053605 0.0257284 0.034325 0.00394078 0.0349272 0.00739502 0.00315473 0.0214908 0.0273684 0.0230996 
  --------------------------------------------------------------
  Initialization seed trial #4 of 5; initialization seed = 493575239
  --------------------------------------------------------------
  Initialized k-means centers using random sampling: 15 centers
  Number of k-means iterations performed: 38
  BIC score: 118206
  Distortion: 132.792
  Distortions/cluster: 1.02474 14.4669 1.39831 14.8036 21.6576 3.51857 3.06771 10.6462 13.9034 16.9448 8.24651 0.836492 2.45529 12.9314 6.89087 
  Variance: 0.0264
  Variances/cluster: 0.00296168 0.0377725 0.0038415 0.0368248 0.0568442 0.0175053 0.01132 0.0233468 0.0354678 0.0432265 0.0315958 0.00624248 0.00757804 0.0320083 0.0216015 
  --------------------------------------------------------------
  Initialization seed trial #5 of 5; initialization seed = 493575240
  --------------------------------------------------------------
  Initialized k-means centers using random sampling: 15 centers
  Number of k-means iterations performed: 48
  BIC score: 117175
  Distortion: 136.938
  Distortions/cluster: 14.3961 14.3586 0.576096 13.5406 16.8094 5.61932 14.5614 7.04479 1.13803 21.6576 12.366 11.8903 0.544833 0.60838 1.82644 
  Variance: 0.0272242
  Variances/cluster: 0.0376861 0.0359865 0.00248317 0.0337672 0.0431009 0.0218651 0.0364948 0.0188363 0.00494796 0.0568442 0.0251852 0.0305663 0.00681042 0.00328854 0.004151 
  The best initialization seed trial was #2

--------------------------------------------------------------
Run number 4 of at most 7, k = 22
--------------------------------------------------------------
  --------------------------------------------------------------
  Initialization seed trial #1 of 5; initialization seed = 493575241
  --------------------------------------------------------------
  Initialized k-means centers using random sampling: 22 centers
  Number of k-means iterations performed: 25
  BIC score: 131917
  Distortion: 87.5344
  Distortions/cluster: 3.216 3.71759 3.55647 11.5774 3.65943 3.02721 3.71292 4.71147 13.357 6.08531 0.509953 0.432391 0.784262 2.85171 3.23643 3.83514 0.618179 7.75463 3.43025 0.748455 5.95202 0.760164 
  Variance: 0.0174267
  Variances/cluster: 0.0245496 0.0192621 0.0275696 0.0227902 0.0288144 0.0152121 0.0152169 0.0196311 0.0297484 0.0200175 0.00670991 0.00203958 0.00313705 0.0266515 0.0204838 0.0159134 0.00588742 0.0198328 0.0178659 0.00253714 0.0243935 0.00333405 
  --------------------------------------------------------------
  Initialization seed trial #2 of 5; initialization seed = 493575242
  --------------------------------------------------------------
  Initialized k-means centers using random sampling: 22 centers
  Number of k-means iterations performed: 18
  BIC score: 127620
  Distortion: 97.8523
  Distortions/cluster: 5.23053 5.53677 2.10509 7.48879 0.26605 10.0145 0.360516 8.41854 1.19137 0.0971719 17.0923 5.78583 2.40452 4.15637 5.04199 0.445063 3.29529 0.875614 0.565727 0.931857 4.73721 11.8111 
  Variance: 0.0194808
  Variances/cluster: 0.0218851 0.0233619 0.0104212 0.027232 0.00450932 0.0352624 0.00434357 0.0202369 0.00630355 0.00359896 0.053581 0.0218333 0.0115049 0.0168274 0.019318 0.00209935 0.0167274 0.00288982 0.00248126 0.00368323 0.0283665 0.0336499 
  --------------------------------------------------------------
  Initialization seed trial #3 of 5; initialization seed = 493575243
  --------------------------------------------------------------
  Initialized k-means centers using random sampling: 22 centers
  Number of k-means iterations performed: 28
  BIC score: 134248
  Distortion: 82.2403
  Distortions/cluster: 5.52692 3.30491 6.79226 3.65861 0.803482 2.33106 2.78529 3.62487 7.46431 3.29713 4.63568 0.702953 2.29962 11.8607 0.453697 3.9751 5.54229 1.32537 1.42967 0.523966 4.16595 5.73638 
  Variance: 0.0163727
  Variances/cluster: 0.0254697 0.0207856 0.0273882 0.0181119 0.00492933 0.0183548 0.0226447 0.015425 0.0288197 0.018949 0.0200679 0.00650882 0.0126353 0.0228972 0.00246575 0.0150004 0.0195841 0.00336388 0.0035388 0.00680475 0.0310892 0.0170726 
  --------------------------------------------------------------
  Initialization seed trial #4 of 5; initialization seed = 493575244
  --------------------------------------------------------------
  Initialized k-means centers using random sampling: 22 centers
  Number of k-means iterations performed: 60
  BIC score: 131870
  Distortion: 87.4913
  Distortions/cluster: 4.29011 10.9065 0.618179 8.1582 0.509953 3.02497 2.81909 4.29378 0.784262 4.57497 0.748455 3.64768 0.432391 3.12185 5.157 13.4787 7.15519 3.59391 2.34813 3.95395 0.760164 3.11384 
  Variance: 0.0174181
  Variances/cluster: 0.016693 0.0222128 0.00588742 0.0203955 0.00670991 0.02192 0.0144569 0.0232096 0.00313705 0.0264449 0.00253714 0.0280591 0.00203958 0.0229548 0.0207944 0.0309856 0.0289684 0.0182432 0.0154482 0.0163387 0.00333405 0.0134798 
  --------------------------------------------------------------
  Initialization seed trial #5 of 5; initialization seed = 493575245
  --------------------------------------------------------------
  Initialized k-means centers using random sampling: 22 centers
  Number of k-means iterations performed: 36
  BIC score: 124486
  Distortion: 107.04
  Distortions/cluster: 10.5838 4.84541 0.332321 0.477182 4.21498 0.24217 8.5432 0.256651 4.29791 0.271521 0.266186 4.08201 0.480195 12.7066 0.48493 17.4045 6.69297 7.95823 0.29787 2.41166 5.72502 14.4646 
  Variance: 0.02131
  Variances/cluster: 0.0224234 0.0253686 0.00203878 0.00311884 0.0201674 0.00164742 0.0268654 0.00145001 0.026862 0.00279918 0.00191501 0.0300148 0.00342996 0.0316873 0.00655311 0.035447 0.0262469 0.0201986 0.00408041 0.0139403 0.0220193 0.0361615 
  The best initialization seed trial was #3

--------------------------------------------------------------
Run number 5 of at most 7, k = 18
--------------------------------------------------------------
  --------------------------------------------------------------
  Initialization seed trial #1 of 5; initialization seed = 493575246
  --------------------------------------------------------------
  Initialized k-means centers using random sampling: 18 centers
  Number of k-means iterations performed: 21
  BIC score: 132342
  Distortion: 91.1
  Distortions/cluster: 12.0443 3.70674 3.85939 3.02224 7.40065 11.8458 5.80788 4.52594 3.84466 3.53422 3.44971 7.2257 1.5459 2.66448 5.3828 2.60822 4.79674 3.83467 
  Variance: 0.0181221
  Variances/cluster: 0.0102855 0.0143672 0.0156886 0.0149616 0.022563 0.0228683 0.0171831 0.0242029 0.019033 0.0238799 0.0239563 0.0284476 0.0144477 0.0160511 0.0255109 0.0170472 0.0326309 0.015525 
  --------------------------------------------------------------
  Initialization seed trial #2 of 5; initialization seed = 493575247
  --------------------------------------------------------------
  Initialized k-means centers using random sampling: 18 centers
  Number of k-means iterations performed: 34
  BIC score: 132399
  Distortion: 90.7551
  Distortions/cluster: 8.69512 4.33328 5.95053 4.33661 12.0443 3.63243 3.82689 4.65223 2.56744 4.37715 4.33611 6.59845 4.80689 4.47499 3.99742 6.27565 3.38818 2.46149 
  Variance: 0.0180535
  Variances/cluster: 0.0212595 0.0318624 0.0204485 0.0143122 0.0102855 0.0185328 0.0263923 0.0164973 0.0208735 0.0260545 0.0178441 0.0217054 0.0180033 0.0182653 0.0197892 0.024805 0.0214442 0.01879 
  --------------------------------------------------------------
  Initialization seed trial #3 of 5; initialization seed = 493575248
  --------------------------------------------------------------
  Initialized k-means centers using random sampling: 18 centers
  Number of k-means iterations performed: 43
  BIC score: 122110
  Distortion: 117.245
  Distortions/cluster: 5.91101 6.63865 15.3916 17.0333 10.5535 1.0844 13.6602 0.407342 0.268828 0.48099 0.696243 8.0291 0.656178 0.335454 7.99158 12.2019 9.01791 6.88712 
  Variance: 0.0233231
  Variances/cluster: 0.0210356 0.0222028 0.0328178 0.053396 0.0357746 0.00484106 0.0247019 0.00290958 0.00407315 0.00649987 0.00351638 0.0248579 0.00267828 0.00153878 0.0201808 0.034179 0.0298606 0.0256982 
  --------------------------------------------------------------
  Initialization seed trial #4 of 5; initialization seed = 493575249
  --------------------------------------------------------------
  Initialized k-means centers using random sampling: 18 centers
  Number of k-means iterations performed: 50
  BIC score: 129024
  Distortion: 98.7635
  Distortions/cluster: 0.651671 10.1075 3.28253 15.7149 11.8714 6.58743 8.37434 3.97193 1.20488e-35 5.08189 4.98025 6.79647 3.73272 4.00653 2.89128 5.60133 2.66075 2.45062 
  Variance: 0.0196466
  Variances/cluster: 0.00749047 0.0311001 0.0266872 0.0332942 0.0230066 0.0218127 0.0206774 0.0193753 0 0.0186834 0.0192288 0.0259407 0.0250518 0.0298995 0.00495083 0.0189875 0.0190053 0.00493083 
  --------------------------------------------------------------
  Initialization seed trial #5 of 5; initialization seed = 493575250
  --------------------------------------------------------------
  Initialized k-means centers using random sampling: 18 centers
  Number of k-means iterations performed: 32
  BIC score: 118019
  Distortion: 130.716
  Distortions/cluster: 16.3038 0.504906 3.62887 12.9609 16.8269 13.3967 0.390708 0.636333 14.5231 0.638793 0.564445 7.60503 0.48493 3.23387 6.99252 10.1475 0.326007 21.5505 
  Variance: 0.0260028
  Variances/cluster: 0.0389112 0.0029355 0.0180541 0.0341977 0.0431459 0.0324376 0.0018784 0.00205933 0.0378205 0.00281407 0.00575965 0.0309148 0.00655311 0.0117169 0.0215818 0.02255 0.00423386 0.0567119 
  The best initialization seed trial was #2

--------------------------------------------------------------
Run number 6 of at most 7, k = 20
--------------------------------------------------------------
  --------------------------------------------------------------
  Initialization seed trial #1 of 5; initialization seed = 493575251
  --------------------------------------------------------------
  Initialized k-means centers using random sampling: 20 centers
  Number of k-means iterations performed: 28
  BIC score: 132273
  Distortion: 87.9876
  Distortions/cluster: 8.41769 4.08975 4.30625 7.18847 2.10629 0.590871 8.97591 4.04253 3.37547 8.07172 4.71471 4.75858 2.05749 1.79365 6.47049 5.39204 4.80812 5.1076 1.04838 0.671572 
  Variance: 0.01751
  Variances/cluster: 0.0203818 0.0216389 0.0312047 0.0289858 0.0118331 0.0072947 0.0332441 0.016774 0.0152048 0.0252241 0.02041 0.0245288 0.00396434 0.00390772 0.0178743 0.0269602 0.0203734 0.0210189 0.00609522 0.00616121 
  --------------------------------------------------------------
  Initialization seed trial #2 of 5; initialization seed = 493575252
  --------------------------------------------------------------
  Initialized k-means centers using random sampling: 20 centers
  Number of k-means iterations performed: 40
  BIC score: 130931
  Distortion: 91.3178
  Distortions/cluster: 0.892524 2.95621 3.25597 14.1281 12.039 5.10906 0.904572 4.66866 5.40547 3.59288 2.84674 0.661968 8.15244 7.2785 0.577825 4.97246 8.07187 2.53824 1.95959 1.30572 
  Variance: 0.0181727
  Variances/cluster: 0.00274623 0.0130229 0.0237662 0.0313958 0.023152 0.0255453 0.00358957 0.0247019 0.0212814 0.0152241 0.0161747 0.00618662 0.0203811 0.0223954 0.00722282 0.0331498 0.0297855 0.0135735 0.0144087 0.00324001 
  --------------------------------------------------------------
  Initialization seed trial #3 of 5; initialization seed = 493575253
  --------------------------------------------------------------
  Initialized k-means centers using random sampling: 20 centers
  Number of k-means iterations performed: 45
  BIC score: 128784
  Distortion: 96.9941
  Distortions/cluster: 0.363229 1.15024 4.83767 3.78746 5.08189 0.308263 15.6118 5.38812 0.865935 3.83289 3.71473 3.8425 11.9901 9.77808 6.78065 3.56358 0.577825 0.771376 8.32849 6.4193 
  Variance: 0.0193023
  Variances/cluster: 0.00465679 0.00297221 0.022712 0.0255909 0.0186834 0.00460094 0.0330059 0.0201049 0.00353443 0.0221555 0.0292498 0.0191169 0.0231023 0.0308457 0.0223048 0.0276246 0.00722282 0.00249636 0.0206151 0.0206408 
  --------------------------------------------------------------
  Initialization seed trial #4 of 5; initialization seed = 493575254
  --------------------------------------------------------------
  Initialized k-means centers using random sampling: 20 centers
  Number of k-means iterations performed: 34
  BIC score: 132973
  Distortion: 85.968
  Distortions/cluster: 4.85862 1.05628 10.0392 6.7186 3.97078 2.40856 1.90784 2.21956 3.49764 3.65445 4.3974 7.56925 6.00857 6.29655 1.72819 6.26206 2.83797 2.14135 3.79239 4.60275 
  Variance: 0.0171081
  Variances/cluster: 0.0202443 0.005772 0.0347378 0.0263475 0.0162737 0.00513552 0.00815315 0.0215492 0.0167351 0.016242 0.0172447 0.0231476 0.0375536 0.0245959 0.00904811 0.028725 0.0161249 0.00459517 0.0170828 0.0151906 
  --------------------------------------------------------------
  Initialization seed trial #5 of 5; initialization seed = 493575255
  --------------------------------------------------------------
  Initialized k-means centers using random sampling: 20 centers
  Number of k-means iterations performed: 21
  BIC score: 132350
  Distortion: 88.068
  Distortions/cluster: 0.264974 2.53704 4.33274 3.8499 2.96421 4.24694 6.72273 6.50068 7.52249 5.84182 2.72888 3.97903 2.46426 5.62123 8.1729 4.70557 2.51684 5.53691 7.31184 0.246999 
  Variance: 0.017526
  Variances/cluster: 0.00449108 0.011911 0.0186756 0.0242132 0.0164678 0.0153319 0.0250848 0.0258991 0.0229344 0.0276863 0.00460182 0.0163075 0.00985705 0.035804 0.0332232 0.0152778 0.00526535 0.0212142 0.0268818 0.00649998 
  The best initialization seed trial was #4

--------------------------------------------------------------
Run number 7 of at most 7, k = 19
--------------------------------------------------------------
  --------------------------------------------------------------
  Initialization seed trial #1 of 5; initialization seed = 493575256
  --------------------------------------------------------------
  Initialized k-means centers using random sampling: 19 centers
  Number of k-means iterations performed: 69
  BIC score: 132031
  Distortion: 88.9313
  Distortions/cluster: 3.8425 9.00024 3.23015 2.50819 3.77012 7.49183 4.81719 5.04719 7.56708 6.79593 5.09604 5.08189 2.96833 6.37807 3.01241 3.83289 3.54098 3.77964 1.17064 
  Variance: 0.0176942
  Variances/cluster: 0.0191169 0.029033 0.0164804 0.0076703 0.0254738 0.0299673 0.0227226 0.0194123 0.0188705 0.0213039 0.0175122 0.0186834 0.00615836 0.0214029 0.0111985 0.0221555 0.0285563 0.0284184 0.00325178 
  --------------------------------------------------------------
  Initialization seed trial #2 of 5; initialization seed = 493575257
  --------------------------------------------------------------
  Initialized k-means centers using random sampling: 19 centers
  Number of k-means iterations performed: 100
  BIC score: 130167
  Distortion: 93.3594
  Distortions/cluster: 9.95947 6.77368 4.42236 0.787029 6.63159 4.95802 6.23011 3.80727 6.64158 1.22152 3.73118 8.05467 6.19781 0.639112 2.0487 1.31631 7.83279 5.13621 6.96998 
  Variance: 0.0185753
  Variances/cluster: 0.034343 0.0223554 0.0170748 0.00465698 0.0293433 0.0189962 0.0214831 0.0171499 0.0257426 0.00342161 0.028054 0.0271201 0.0380234 0.00743154 0.00460382 0.0047011 0.0235219 0.0180218 0.0188888 
  --------------------------------------------------------------
  Initialization seed trial #3 of 5; initialization seed = 493575258
  --------------------------------------------------------------
  Initialized k-means centers using random sampling: 19 centers
  Number of k-means iterations performed: 21
  BIC score: 112198
  Distortion: 154.192
  Distortions/cluster: 0.0946361 0.355004 14.0416 9.33878 27.2704 0.509953 25.4004 15.4288 0.216673 0.266186 17.8558 6.19395 0.444953 0.225481 11.6159 0.471325 23.9109 0.244001 0.307879 
  Variance: 0.030679
  Variances/cluster: 0.0946361 0.00215154 0.037049 0.0265306 0.0521422 0.00670991 0.0504979 0.0477671 0.00148406 0.00191501 0.0290338 0.0366506 0.00220274 0.00289079 0.0246622 0.00339083 0.0453716 0.00400001 0.00196101 
  --------------------------------------------------------------
  Initialization seed trial #4 of 5; initialization seed = 493575259
  --------------------------------------------------------------
  Initialized k-means centers using random sampling: 19 centers
  Number of k-means iterations performed: 54
  BIC score: 132279
  Distortion: 88.753
  Distortions/cluster: 7.26196 10.0392 4.79072 2.55793 2.50036 3.49764 3.16065 2.89128 3.80563 6.00857 2.30843 6.29655 3.27123 7.91366 0.651671 3.97078 6.26206 4.3974 7.16722 
  Variance: 0.0176588
  Variances/cluster: 0.0183847 0.0347378 0.0198785 0.00513641 0.0100014 0.0167351 0.0163764 0.00495083 0.0143069 0.0375536 0.0221965 0.0245959 0.0180731 0.0236936 0.00749047 0.0162737 0.028725 0.0172447 0.0273558 
  --------------------------------------------------------------
  Initialization seed trial #5 of 5; initialization seed = 493575260
  --------------------------------------------------------------
  Initialized k-means centers using random sampling: 19 centers
  Number of k-means iterations performed: 30
  BIC score: 130165
  Distortion: 93.3214
  Distortions/cluster: 0.6453 1.84986 8.06865 8.58546 4.95312 6.92944 6.5723 4.82739 1.40668 6.57631 5.12503 6.26586 1.53448 5.21362 4.48457 9.80995 0.845822 7.44501 2.18259 
  Variance: 0.0185677
  Variances/cluster: 0.00571062 0.00783838 0.0194425 0.0285231 0.0339255 0.02576 0.029081 0.0175541 0.00343931 0.0220682 0.019413 0.0237343 0.00374263 0.02581 0.017382 0.034181 0.00488915 0.0237102 0.0131482 
  The best initialization seed trial was #4

------------------------------------------------------------------
------------------------------------------------------------------
Post-processing runs
------------------------------------------------------------------
------------------------------------------------------------------
  For the BIC threshold, the best clustering was run 6 (k = 20)
  Post-processing run 6 (k = 20)
    Saving simpoints of all non-empty clusters to file '/home/cuihongwei/gem5/simpoint_arm/401.bzip2/arm-401.bzip2-input4-190604-144227/simpoint_file'
    Saving weights of all non-empty clusters to file '/home/cuihongwei/gem5/simpoint_arm/401.bzip2/arm-401.bzip2-input4-190604-144227/weight_file'
