
******************************directory****************************
spec_dir: /home/cuihongwei/experiment/mcpat-gem5-master/spec2006
run_dir:  /home/cuihongwei/experiment/simpoint/401.bzip2/arm-401.bzip2-input6-190517-230332/run
gem5_dir: /home/cuihongwei/experiment/experiment-gem5/raw-gem5
gem5_output_dir: /home/cuihongwei/experiment/simpoint/401.bzip2/arm-401.bzip2-input6-190517-230332
benchmark_output:/home/cuihongwei/experiment/simpoint/401.bzip2/arm-401.bzip2-input6-190517-230332

******************************benchmark****************************
target:     401.bzip2
executable: bzip2
args:       input.combined 200
input:      
output:     /home/cuihongwei/experiment/simpoint/401.bzip2/arm-401.bzip2-input6-190517-230332/run/input.combined.out
errout:     /home/cuihongwei/experiment/simpoint/401.bzip2/arm-401.bzip2-input6-190517-230332/run/input.combined.err

******************************gem5****************************
arch:       /home/cuihongwei/experiment/experiment-gem5/raw-gem5/build/ARM/gem5.opt
config:     /home/cuihongwei/experiment/experiment-gem5/raw-gem5/configs/example/se.py
args:       --simpoint-profile --simpoint-interval=100000000 --maxinsts=900000000000 --cpu-type=NonCachingSimpleCPU --mem-type=SimpleMemory --mem-size=8GB

******************************simulation****************************
start time:(year-mon-day hour-minute-second)19-05-17 23-03-32
gem5 Simulator System.  http://gem5.org
gem5 is copyrighted software; use the --copyright option for details.

gem5 compiled May 17 2019 22:58:52
gem5 started May 17 2019 23:03:33
gem5 executing on mprc-R730, pid 45016
command line: /home/cuihongwei/experiment/experiment-gem5/raw-gem5/build/ARM/gem5.opt --outdir=/home/cuihongwei/experiment/simpoint/401.bzip2/arm-401.bzip2-input6-190517-230332 --debug-flags=ShowRunning /home/cuihongwei/experiment/experiment-gem5/raw-gem5/configs/example/se.py --simpoint-profile --simpoint-interval=100000000 --maxinsts=900000000000 --cpu-type=NonCachingSimpleCPU --mem-type=SimpleMemory --mem-size=8GB --cmd=bzip2 '--options=input.combined 200' --output=/home/cuihongwei/experiment/simpoint/401.bzip2/arm-401.bzip2-input6-190517-230332/run/input.combined.out --input= --errout=/home/cuihongwei/experiment/simpoint/401.bzip2/arm-401.bzip2-input6-190517-230332/run/input.combined.err

Global frequency set at 1000000000000 ticks per second
**** REAL SIMULATION ****
      0: system.cpu: Running Insts:               0
5000212500: system.cpu: Running Insts:        10000000
10000212500: system.cpu: Running Insts:        20000000
15000212500: system.cpu: Running Insts:        30000000
20000212500: system.cpu: Running Insts:        40000000
25000212500: system.cpu: Running Insts:        50000000
30000212500: system.cpu: Running Insts:        60000000
35000214500: system.cpu: Running Insts:        70000000
40000214500: system.cpu: Running Insts:        80000000
45000215000: system.cpu: Running Insts:        90000000
50000215000: system.cpu: Running Insts:       100000000
55000215000: system.cpu: Running Insts:       110000000
60000215000: system.cpu: Running Insts:       120000000
65000215000: system.cpu: Running Insts:       130000000
70000215000: system.cpu: Running Insts:       140000000
75000215000: system.cpu: Running Insts:       150000000
80000215000: system.cpu: Running Insts:       160000000
85000215000: system.cpu: Running Insts:       170000000
90000215000: system.cpu: Running Insts:       180000000
95000215000: system.cpu: Running Insts:       190000000
100000215000: system.cpu: Running Insts:       200000000
105000215000: system.cpu: Running Insts:       210000000
110000215000: system.cpu: Running Insts:       220000000
115000215000: system.cpu: Running Insts:       230000000
120000215000: system.cpu: Running Insts:       240000000
125000215000: system.cpu: Running Insts:       250000000
130000215000: system.cpu: Running Insts:       260000000
135000215000: system.cpu: Running Insts:       270000000
140000215000: system.cpu: Running Insts:       280000000
145000215000: system.cpu: Running Insts:       290000000
150000215000: system.cpu: Running Insts:       300000000
155000215000: system.cpu: Running Insts:       310000000
160000215000: system.cpu: Running Insts:       320000000
165000215000: system.cpu: Running Insts:       330000000
170000215000: system.cpu: Running Insts:       340000000
175000215000: system.cpu: Running Insts:       350000000
180000215000: system.cpu: Running Insts:       360000000
185000215000: system.cpu: Running Insts:       370000000
190000215000: system.cpu: Running Insts:       380000000
195000215000: system.cpu: Running Insts:       390000000
200000215000: system.cpu: Running Insts:       400000000
205000215000: system.cpu: Running Insts:       410000000
210000215000: system.cpu: Running Insts:       420000000
215000215000: system.cpu: Running Insts:       430000000
220000215000: system.cpu: Running Insts:       440000000
225000215500: system.cpu: Running Insts:       450000000
230000215500: system.cpu: Running Insts:       460000000
235000215500: system.cpu: Running Insts:       470000000
240000215500: system.cpu: Running Insts:       480000000
245000215500: system.cpu: Running Insts:       490000000
250000215500: system.cpu: Running Insts:       500000000
255000215500: system.cpu: Running Insts:       510000000
260000215500: system.cpu: Running Insts:       520000000
265000215500: system.cpu: Running Insts:       530000000
270000215500: system.cpu: Running Insts:       540000000
275000215500: system.cpu: Running Insts:       550000000
280000215500: system.cpu: Running Insts:       560000000
285000215500: system.cpu: Running Insts:       570000000
290000215500: system.cpu: Running Insts:       580000000
295000215500: system.cpu: Running Insts:       590000000
300000215500: system.cpu: Running Insts:       600000000
305000215500: system.cpu: Running Insts:       610000000
310000215500: system.cpu: Running Insts:       620000000
315000215500: system.cpu: Running Insts:       630000000
320000215500: system.cpu: Running Insts:       640000000
325000215500: system.cpu: Running Insts:       650000000
330000215500: system.cpu: Running Insts:       660000000
335000215500: system.cpu: Running Insts:       670000000
340000215500: system.cpu: Running Insts:       680000000
345000215500: system.cpu: Running Insts:       690000000
350000215500: system.cpu: Running Insts:       700000000
355000215500: system.cpu: Running Insts:       710000000
360000215500: system.cpu: Running Insts:       720000000
365000215500: system.cpu: Running Insts:       730000000
370000215500: system.cpu: Running Insts:       740000000
375000215500: system.cpu: Running Insts:       750000000
380000215500: system.cpu: Running Insts:       760000000
385000215500: system.cpu: Running Insts:       770000000
390000215500: system.cpu: Running Insts:       780000000
395000215500: system.cpu: Running Insts:       790000000
400000215500: system.cpu: Running Insts:       800000000
405000215500: system.cpu: Running Insts:       810000000
410000215500: system.cpu: Running Insts:       820000000
415000215500: system.cpu: Running Insts:       830000000
420000215500: system.cpu: Running Insts:       840000000
425000215500: system.cpu: Running Insts:       850000000
430000215500: system.cpu: Running Insts:       860000000
435000215500: system.cpu: Running Insts:       870000000
440000215500: system.cpu: Running Insts:       880000000
445000215500: system.cpu: Running Insts:       890000000
450000215500: system.cpu: Running Insts:       900000000
455000215500: system.cpu: Running Insts:       910000000
460000215500: system.cpu: Running Insts:       920000000
465000215500: system.cpu: Running Insts:       930000000
470000215500: system.cpu: Running Insts:       940000000
475000215500: system.cpu: Running Insts:       950000000
480000215500: system.cpu: Running Insts:       960000000
485000215500: system.cpu: Running Insts:       970000000
490000215500: system.cpu: Running Insts:       980000000
495000215500: system.cpu: Running Insts:       990000000
500000215500: system.cpu: Running Insts:      1000000000
505000215500: system.cpu: Running Insts:      1010000000
510000215500: system.cpu: Running Insts:      1020000000
515000215500: system.cpu: Running Insts:      1030000000
520000215500: system.cpu: Running Insts:      1040000000
525000215500: system.cpu: Running Insts:      1050000000
530000215500: system.cpu: Running Insts:      1060000000
535000215500: system.cpu: Running Insts:      1070000000
540000215500: system.cpu: Running Insts:      1080000000
545000215500: system.cpu: Running Insts:      1090000000
550000215500: system.cpu: Running Insts:      1100000000
555000215500: system.cpu: Running Insts:      1110000000
560000215500: system.cpu: Running Insts:      1120000000
565000215500: system.cpu: Running Insts:      1130000000
570000215500: system.cpu: Running Insts:      1140000000
575000215500: system.cpu: Running Insts:      1150000000
580000215500: system.cpu: Running Insts:      1160000000
585000215500: system.cpu: Running Insts:      1170000000
590000215500: system.cpu: Running Insts:      1180000000
595000215500: system.cpu: Running Insts:      1190000000
600000215500: system.cpu: Running Insts:      1200000000
605000215500: system.cpu: Running Insts:      1210000000
610000215500: system.cpu: Running Insts:      1220000000
615000215500: system.cpu: Running Insts:      1230000000
620000215500: system.cpu: Running Insts:      1240000000
625000215500: system.cpu: Running Insts:      1250000000
630000215500: system.cpu: Running Insts:      1260000000
635000215500: system.cpu: Running Insts:      1270000000
640000215500: system.cpu: Running Insts:      1280000000
645000215500: system.cpu: Running Insts:      1290000000
650000215500: system.cpu: Running Insts:      1300000000
655000215500: system.cpu: Running Insts:      1310000000
660000215500: system.cpu: Running Insts:      1320000000
665000215500: system.cpu: Running Insts:      1330000000
670000215500: system.cpu: Running Insts:      1340000000
675000215500: system.cpu: Running Insts:      1350000000
680000215500: system.cpu: Running Insts:      1360000000
685000215500: system.cpu: Running Insts:      1370000000
690000215500: system.cpu: Running Insts:      1380000000
695000215500: system.cpu: Running Insts:      1390000000
700000215500: system.cpu: Running Insts:      1400000000
705000215500: system.cpu: Running Insts:      1410000000
710000215500: system.cpu: Running Insts:      1420000000
715000215500: system.cpu: Running Insts:      1430000000
720000215500: system.cpu: Running Insts:      1440000000
725000215500: system.cpu: Running Insts:      1450000000
730000215500: system.cpu: Running Insts:      1460000000
735000215500: system.cpu: Running Insts:      1470000000
740000215500: system.cpu: Running Insts:      1480000000
745000215500: system.cpu: Running Insts:      1490000000
750000215500: system.cpu: Running Insts:      1500000000
755000215500: system.cpu: Running Insts:      1510000000
760000215500: system.cpu: Running Insts:      1520000000
765000215500: system.cpu: Running Insts:      1530000000
770000215500: system.cpu: Running Insts:      1540000000
775000215500: system.cpu: Running Insts:      1550000000
780000215500: system.cpu: Running Insts:      1560000000
785000215500: system.cpu: Running Insts:      1570000000
790000215500: system.cpu: Running Insts:      1580000000
795000215500: system.cpu: Running Insts:      1590000000
800000215500: system.cpu: Running Insts:      1600000000
805000215500: system.cpu: Running Insts:      1610000000
810000215500: system.cpu: Running Insts:      1620000000
815000215500: system.cpu: Running Insts:      1630000000
820000215500: system.cpu: Running Insts:      1640000000
825000215500: system.cpu: Running Insts:      1650000000
830000215500: system.cpu: Running Insts:      1660000000
835000215500: system.cpu: Running Insts:      1670000000
840000215500: system.cpu: Running Insts:      1680000000
845000215500: system.cpu: Running Insts:      1690000000
850000215500: system.cpu: Running Insts:      1700000000
855000215500: system.cpu: Running Insts:      1710000000
860000215500: system.cpu: Running Insts:      1720000000
865000215500: system.cpu: Running Insts:      1730000000
870000215500: system.cpu: Running Insts:      1740000000
875000215500: system.cpu: Running Insts:      1750000000
880000215500: system.cpu: Running Insts:      1760000000
885000215500: system.cpu: Running Insts:      1770000000
890000215500: system.cpu: Running Insts:      1780000000
895000215500: system.cpu: Running Insts:      1790000000
900000215500: system.cpu: Running Insts:      1800000000
905000215500: system.cpu: Running Insts:      1810000000
910000215500: system.cpu: Running Insts:      1820000000
915000215500: system.cpu: Running Insts:      1830000000
920000215500: system.cpu: Running Insts:      1840000000
925000215500: system.cpu: Running Insts:      1850000000
930000215500: system.cpu: Running Insts:      1860000000
935000215500: system.cpu: Running Insts:      1870000000
940000215500: system.cpu: Running Insts:      1880000000
945000215500: system.cpu: Running Insts:      1890000000
950000215500: system.cpu: Running Insts:      1900000000
955000215500: system.cpu: Running Insts:      1910000000
960000215500: system.cpu: Running Insts:      1920000000
965000215500: system.cpu: Running Insts:      1930000000
970000215500: system.cpu: Running Insts:      1940000000
975000215500: system.cpu: Running Insts:      1950000000
980000215500: system.cpu: Running Insts:      1960000000
985000215500: system.cpu: Running Insts:      1970000000
990000215500: system.cpu: Running Insts:      1980000000
995000215500: system.cpu: Running Insts:      1990000000
1000000215500: system.cpu: Running Insts:      2000000000
1005000215500: system.cpu: Running Insts:      2010000000
1010000215500: system.cpu: Running Insts:      2020000000
1015000215500: system.cpu: Running Insts:      2030000000
1020000215500: system.cpu: Running Insts:      2040000000
1025000215500: system.cpu: Running Insts:      2050000000
1030000215500: system.cpu: Running Insts:      2060000000
1035000215500: system.cpu: Running Insts:      2070000000
1040000215500: system.cpu: Running Insts:      2080000000
1045000215500: system.cpu: Running Insts:      2090000000
1050000215500: system.cpu: Running Insts:      2100000000
1055000215500: system.cpu: Running Insts:      2110000000
1060000215500: system.cpu: Running Insts:      2120000000
1065000215500: system.cpu: Running Insts:      2130000000
1070000215500: system.cpu: Running Insts:      2140000000
1075000215500: system.cpu: Running Insts:      2150000000
1080000215500: system.cpu: Running Insts:      2160000000
1085000215500: system.cpu: Running Insts:      2170000000
1090000215500: system.cpu: Running Insts:      2180000000
1095000215500: system.cpu: Running Insts:      2190000000
1100000215500: system.cpu: Running Insts:      2200000000
1105000215500: system.cpu: Running Insts:      2210000000
1110000215500: system.cpu: Running Insts:      2220000000
1115000215500: system.cpu: Running Insts:      2230000000
1120000215500: system.cpu: Running Insts:      2240000000
1125000215500: system.cpu: Running Insts:      2250000000
1130000215500: system.cpu: Running Insts:      2260000000
1135000215500: system.cpu: Running Insts:      2270000000
1140000215500: system.cpu: Running Insts:      2280000000
1145000215500: system.cpu: Running Insts:      2290000000
1150000215500: system.cpu: Running Insts:      2300000000
1155000215500: system.cpu: Running Insts:      2310000000
1160000215500: system.cpu: Running Insts:      2320000000
1165000215500: system.cpu: Running Insts:      2330000000
1170000215500: system.cpu: Running Insts:      2340000000
1175000215500: system.cpu: Running Insts:      2350000000
1180000215500: system.cpu: Running Insts:      2360000000
1185000215500: system.cpu: Running Insts:      2370000000
1190000215500: system.cpu: Running Insts:      2380000000
1195000215500: system.cpu: Running Insts:      2390000000
1200000215500: system.cpu: Running Insts:      2400000000
1205000215500: system.cpu: Running Insts:      2410000000
1210000215500: system.cpu: Running Insts:      2420000000
1215000215500: system.cpu: Running Insts:      2430000000
1220000215500: system.cpu: Running Insts:      2440000000
1225000215500: system.cpu: Running Insts:      2450000000
1230000215500: system.cpu: Running Insts:      2460000000
1235000215500: system.cpu: Running Insts:      2470000000
1240000215500: system.cpu: Running Insts:      2480000000
1245000215500: system.cpu: Running Insts:      2490000000
1250000215500: system.cpu: Running Insts:      2500000000
1255000215500: system.cpu: Running Insts:      2510000000
1260000215500: system.cpu: Running Insts:      2520000000
1265000215500: system.cpu: Running Insts:      2530000000
1270000215500: system.cpu: Running Insts:      2540000000
1275000215500: system.cpu: Running Insts:      2550000000
1280000215500: system.cpu: Running Insts:      2560000000
1285000215500: system.cpu: Running Insts:      2570000000
1290000215500: system.cpu: Running Insts:      2580000000
1295000215500: system.cpu: Running Insts:      2590000000
1300000215500: system.cpu: Running Insts:      2600000000
1305000215500: system.cpu: Running Insts:      2610000000
1310000215500: system.cpu: Running Insts:      2620000000
1315000215500: system.cpu: Running Insts:      2630000000
1320000215500: system.cpu: Running Insts:      2640000000
1325000215500: system.cpu: Running Insts:      2650000000
1330000215500: system.cpu: Running Insts:      2660000000
1335000215500: system.cpu: Running Insts:      2670000000
1340000215500: system.cpu: Running Insts:      2680000000
1345000215500: system.cpu: Running Insts:      2690000000
1350000215500: system.cpu: Running Insts:      2700000000
1355000215500: system.cpu: Running Insts:      2710000000
1360000215500: system.cpu: Running Insts:      2720000000
1365000215500: system.cpu: Running Insts:      2730000000
1370000215500: system.cpu: Running Insts:      2740000000
1375000215500: system.cpu: Running Insts:      2750000000
1380000215500: system.cpu: Running Insts:      2760000000
1385000215500: system.cpu: Running Insts:      2770000000
1390000215500: system.cpu: Running Insts:      2780000000
1395000215500: system.cpu: Running Insts:      2790000000
1400000215500: system.cpu: Running Insts:      2800000000
1405000215500: system.cpu: Running Insts:      2810000000
1410000215500: system.cpu: Running Insts:      2820000000
1415000215500: system.cpu: Running Insts:      2830000000
1420000215500: system.cpu: Running Insts:      2840000000
1425000215500: system.cpu: Running Insts:      2850000000
1430000215500: system.cpu: Running Insts:      2860000000
1435000215500: system.cpu: Running Insts:      2870000000
1440000215500: system.cpu: Running Insts:      2880000000
1445000215500: system.cpu: Running Insts:      2890000000
1450000215500: system.cpu: Running Insts:      2900000000
1455000215500: system.cpu: Running Insts:      2910000000
1460000215500: system.cpu: Running Insts:      2920000000
1465000215500: system.cpu: Running Insts:      2930000000
1470000215500: system.cpu: Running Insts:      2940000000
1475000215500: system.cpu: Running Insts:      2950000000
1480000215500: system.cpu: Running Insts:      2960000000
1485000215500: system.cpu: Running Insts:      2970000000
1490000215500: system.cpu: Running Insts:      2980000000
1495000215500: system.cpu: Running Insts:      2990000000
1500000215500: system.cpu: Running Insts:      3000000000
1505000215500: system.cpu: Running Insts:      3010000000
1510000215500: system.cpu: Running Insts:      3020000000
1515000215500: system.cpu: Running Insts:      3030000000
1520000215500: system.cpu: Running Insts:      3040000000
1525000215500: system.cpu: Running Insts:      3050000000
1530000215500: system.cpu: Running Insts:      3060000000
1535000215500: system.cpu: Running Insts:      3070000000
1540000215500: system.cpu: Running Insts:      3080000000
1545000215500: system.cpu: Running Insts:      3090000000
1550000215500: system.cpu: Running Insts:      3100000000
1555000215500: system.cpu: Running Insts:      3110000000
1560000215500: system.cpu: Running Insts:      3120000000
1565000215500: system.cpu: Running Insts:      3130000000
1570000215500: system.cpu: Running Insts:      3140000000
1575000215500: system.cpu: Running Insts:      3150000000
1580000215500: system.cpu: Running Insts:      3160000000
1585000215500: system.cpu: Running Insts:      3170000000
1590000215500: system.cpu: Running Insts:      3180000000
1595000215500: system.cpu: Running Insts:      3190000000
1600000215500: system.cpu: Running Insts:      3200000000
1605000215500: system.cpu: Running Insts:      3210000000
1610000215500: system.cpu: Running Insts:      3220000000
1615000215500: system.cpu: Running Insts:      3230000000
1620000215500: system.cpu: Running Insts:      3240000000
1625000215500: system.cpu: Running Insts:      3250000000
1630000215500: system.cpu: Running Insts:      3260000000
1635000215500: system.cpu: Running Insts:      3270000000
1640000215500: system.cpu: Running Insts:      3280000000
1645000215500: system.cpu: Running Insts:      3290000000
1650000215500: system.cpu: Running Insts:      3300000000
1655000215500: system.cpu: Running Insts:      3310000000
1660000215500: system.cpu: Running Insts:      3320000000
1665000215500: system.cpu: Running Insts:      3330000000
1670000215500: system.cpu: Running Insts:      3340000000
1675000215500: system.cpu: Running Insts:      3350000000
1680000215500: system.cpu: Running Insts:      3360000000
1685000215500: system.cpu: Running Insts:      3370000000
1690000215500: system.cpu: Running Insts:      3380000000
1695000215500: system.cpu: Running Insts:      3390000000
1700000215500: system.cpu: Running Insts:      3400000000
1705000215500: system.cpu: Running Insts:      3410000000
1710000215500: system.cpu: Running Insts:      3420000000
1715000215500: system.cpu: Running Insts:      3430000000
1720000215500: system.cpu: Running Insts:      3440000000
1725000215500: system.cpu: Running Insts:      3450000000
1730000215500: system.cpu: Running Insts:      3460000000
1735000215500: system.cpu: Running Insts:      3470000000
1740000215500: system.cpu: Running Insts:      3480000000
1745000215500: system.cpu: Running Insts:      3490000000
1750000215500: system.cpu: Running Insts:      3500000000
1755000215500: system.cpu: Running Insts:      3510000000
1760000215500: system.cpu: Running Insts:      3520000000
1765000215500: system.cpu: Running Insts:      3530000000
1770000215500: system.cpu: Running Insts:      3540000000
1775000215500: system.cpu: Running Insts:      3550000000
1780000215500: system.cpu: Running Insts:      3560000000
1785000215500: system.cpu: Running Insts:      3570000000
1790000215500: system.cpu: Running Insts:      3580000000
1795000215500: system.cpu: Running Insts:      3590000000
1800000215500: system.cpu: Running Insts:      3600000000
1805000215500: system.cpu: Running Insts:      3610000000
1810000215500: system.cpu: Running Insts:      3620000000
1815000215500: system.cpu: Running Insts:      3630000000
1820000215500: system.cpu: Running Insts:      3640000000
1825000215500: system.cpu: Running Insts:      3650000000
1830000215500: system.cpu: Running Insts:      3660000000
1835000215500: system.cpu: Running Insts:      3670000000
1840000215500: system.cpu: Running Insts:      3680000000
1845000215500: system.cpu: Running Insts:      3690000000
1850000215500: system.cpu: Running Insts:      3700000000
1855000215500: system.cpu: Running Insts:      3710000000
1860000215500: system.cpu: Running Insts:      3720000000
1865000215500: system.cpu: Running Insts:      3730000000
1870000215500: system.cpu: Running Insts:      3740000000
1875000215500: system.cpu: Running Insts:      3750000000
1880000215500: system.cpu: Running Insts:      3760000000
1885000215500: system.cpu: Running Insts:      3770000000
1890000215500: system.cpu: Running Insts:      3780000000
1895000215500: system.cpu: Running Insts:      3790000000
1900000215500: system.cpu: Running Insts:      3800000000
1905000215500: system.cpu: Running Insts:      3810000000
1910000215500: system.cpu: Running Insts:      3820000000
1915000215500: system.cpu: Running Insts:      3830000000
1920000215500: system.cpu: Running Insts:      3840000000
1925000215500: system.cpu: Running Insts:      3850000000
1930000215500: system.cpu: Running Insts:      3860000000
1935000215500: system.cpu: Running Insts:      3870000000
1940000215500: system.cpu: Running Insts:      3880000000
1945000215500: system.cpu: Running Insts:      3890000000
1950000215500: system.cpu: Running Insts:      3900000000
1955000215500: system.cpu: Running Insts:      3910000000
1960000215500: system.cpu: Running Insts:      3920000000
1965000215500: system.cpu: Running Insts:      3930000000
1970000215500: system.cpu: Running Insts:      3940000000
1975000215500: system.cpu: Running Insts:      3950000000
1980000215500: system.cpu: Running Insts:      3960000000
1985000215500: system.cpu: Running Insts:      3970000000
1990000215500: system.cpu: Running Insts:      3980000000
1995000215500: system.cpu: Running Insts:      3990000000
2000000215500: system.cpu: Running Insts:      4000000000
2005000215500: system.cpu: Running Insts:      4010000000
2010000215500: system.cpu: Running Insts:      4020000000
2015000215500: system.cpu: Running Insts:      4030000000
2020000215500: system.cpu: Running Insts:      4040000000
2025000215500: system.cpu: Running Insts:      4050000000
2030000215500: system.cpu: Running Insts:      4060000000
2035000215500: system.cpu: Running Insts:      4070000000
2040000215500: system.cpu: Running Insts:      4080000000
2045000215500: system.cpu: Running Insts:      4090000000
2050000215500: system.cpu: Running Insts:      4100000000
2055000215500: system.cpu: Running Insts:      4110000000
2060000215500: system.cpu: Running Insts:      4120000000
2065000215500: system.cpu: Running Insts:      4130000000
2070000215500: system.cpu: Running Insts:      4140000000
2075000215500: system.cpu: Running Insts:      4150000000
2080000215500: system.cpu: Running Insts:      4160000000
2085000215500: system.cpu: Running Insts:      4170000000
2090000215500: system.cpu: Running Insts:      4180000000
2095000215500: system.cpu: Running Insts:      4190000000
2100000215500: system.cpu: Running Insts:      4200000000
2105000215500: system.cpu: Running Insts:      4210000000
2110000215500: system.cpu: Running Insts:      4220000000
2115000215500: system.cpu: Running Insts:      4230000000
2120000215500: system.cpu: Running Insts:      4240000000
2125000215500: system.cpu: Running Insts:      4250000000
2130000215500: system.cpu: Running Insts:      4260000000
2135000215500: system.cpu: Running Insts:      4270000000
2140000215500: system.cpu: Running Insts:      4280000000
2145000215500: system.cpu: Running Insts:      4290000000
2150000215500: system.cpu: Running Insts:      4300000000
2155000215500: system.cpu: Running Insts:      4310000000
2160000215500: system.cpu: Running Insts:      4320000000
2165000215500: system.cpu: Running Insts:      4330000000
2170000215500: system.cpu: Running Insts:      4340000000
2175000215500: system.cpu: Running Insts:      4350000000
2180000215500: system.cpu: Running Insts:      4360000000
2185000215500: system.cpu: Running Insts:      4370000000
2190000215500: system.cpu: Running Insts:      4380000000
2195000215500: system.cpu: Running Insts:      4390000000
2200000215500: system.cpu: Running Insts:      4400000000
2205000215500: system.cpu: Running Insts:      4410000000
2210000215500: system.cpu: Running Insts:      4420000000
2215000215500: system.cpu: Running Insts:      4430000000
2220000215500: system.cpu: Running Insts:      4440000000
2225000215500: system.cpu: Running Insts:      4450000000
2230000215500: system.cpu: Running Insts:      4460000000
2235000215500: system.cpu: Running Insts:      4470000000
2240000215500: system.cpu: Running Insts:      4480000000
2245000215500: system.cpu: Running Insts:      4490000000
2250000215500: system.cpu: Running Insts:      4500000000
2255000215500: system.cpu: Running Insts:      4510000000
2260000215500: system.cpu: Running Insts:      4520000000
2265000215500: system.cpu: Running Insts:      4530000000
2270000215500: system.cpu: Running Insts:      4540000000
2275000215500: system.cpu: Running Insts:      4550000000
2280000215500: system.cpu: Running Insts:      4560000000
2285000215500: system.cpu: Running Insts:      4570000000
2290000215500: system.cpu: Running Insts:      4580000000
2295000215500: system.cpu: Running Insts:      4590000000
2300000215500: system.cpu: Running Insts:      4600000000
2305000215500: system.cpu: Running Insts:      4610000000
2310000215500: system.cpu: Running Insts:      4620000000
2315000215500: system.cpu: Running Insts:      4630000000
2320000215500: system.cpu: Running Insts:      4640000000
2325000215500: system.cpu: Running Insts:      4650000000
2330000215500: system.cpu: Running Insts:      4660000000
2335000215500: system.cpu: Running Insts:      4670000000
2340000215500: system.cpu: Running Insts:      4680000000
2345000215500: system.cpu: Running Insts:      4690000000
2350000215500: system.cpu: Running Insts:      4700000000
2355000215500: system.cpu: Running Insts:      4710000000
2360000215500: system.cpu: Running Insts:      4720000000
2365000215500: system.cpu: Running Insts:      4730000000
2370000215500: system.cpu: Running Insts:      4740000000
2375000215500: system.cpu: Running Insts:      4750000000
2380000215500: system.cpu: Running Insts:      4760000000
2385000215500: system.cpu: Running Insts:      4770000000
2390000215500: system.cpu: Running Insts:      4780000000
2395000215500: system.cpu: Running Insts:      4790000000
2400000215500: system.cpu: Running Insts:      4800000000
2405000215500: system.cpu: Running Insts:      4810000000
2410000215500: system.cpu: Running Insts:      4820000000
2415000215500: system.cpu: Running Insts:      4830000000
2420000215500: system.cpu: Running Insts:      4840000000
2425000215500: system.cpu: Running Insts:      4850000000
2430000215500: system.cpu: Running Insts:      4860000000
2435000215500: system.cpu: Running Insts:      4870000000
2440000215500: system.cpu: Running Insts:      4880000000
2445000215500: system.cpu: Running Insts:      4890000000
2450000215500: system.cpu: Running Insts:      4900000000
2455000215500: system.cpu: Running Insts:      4910000000
2460000215500: system.cpu: Running Insts:      4920000000
2465000215500: system.cpu: Running Insts:      4930000000
2470000215500: system.cpu: Running Insts:      4940000000
2475000215500: system.cpu: Running Insts:      4950000000
2480000215500: system.cpu: Running Insts:      4960000000
2485000215500: system.cpu: Running Insts:      4970000000
2490000215500: system.cpu: Running Insts:      4980000000
2495000215500: system.cpu: Running Insts:      4990000000
2500000215500: system.cpu: Running Insts:      5000000000
2505000215500: system.cpu: Running Insts:      5010000000
2510000215500: system.cpu: Running Insts:      5020000000
2515000215500: system.cpu: Running Insts:      5030000000
2520000215500: system.cpu: Running Insts:      5040000000
2525000215500: system.cpu: Running Insts:      5050000000
2530000215500: system.cpu: Running Insts:      5060000000
2535000215500: system.cpu: Running Insts:      5070000000
2540000215500: system.cpu: Running Insts:      5080000000
2545000215500: system.cpu: Running Insts:      5090000000
2550000215500: system.cpu: Running Insts:      5100000000
2555000215500: system.cpu: Running Insts:      5110000000
2560000215500: system.cpu: Running Insts:      5120000000
2565000215500: system.cpu: Running Insts:      5130000000
2570000215500: system.cpu: Running Insts:      5140000000
2575000215500: system.cpu: Running Insts:      5150000000
2580000215500: system.cpu: Running Insts:      5160000000
2585000215500: system.cpu: Running Insts:      5170000000
2590000215500: system.cpu: Running Insts:      5180000000
2595000215500: system.cpu: Running Insts:      5190000000
2600000215500: system.cpu: Running Insts:      5200000000
2605000215500: system.cpu: Running Insts:      5210000000
2610000215500: system.cpu: Running Insts:      5220000000
2615000215500: system.cpu: Running Insts:      5230000000
2620000215500: system.cpu: Running Insts:      5240000000
2625000215500: system.cpu: Running Insts:      5250000000
2630000215500: system.cpu: Running Insts:      5260000000
2635000215500: system.cpu: Running Insts:      5270000000
2640000215500: system.cpu: Running Insts:      5280000000
2645000215500: system.cpu: Running Insts:      5290000000
2650000215500: system.cpu: Running Insts:      5300000000
2655000215500: system.cpu: Running Insts:      5310000000
2660000215500: system.cpu: Running Insts:      5320000000
2665000215500: system.cpu: Running Insts:      5330000000
2670000215500: system.cpu: Running Insts:      5340000000
2675000215500: system.cpu: Running Insts:      5350000000
2680000215500: system.cpu: Running Insts:      5360000000
2685000215500: system.cpu: Running Insts:      5370000000
2690000215500: system.cpu: Running Insts:      5380000000
2695000215500: system.cpu: Running Insts:      5390000000
2700000215500: system.cpu: Running Insts:      5400000000
2705000215500: system.cpu: Running Insts:      5410000000
2710000215500: system.cpu: Running Insts:      5420000000
2715000215500: system.cpu: Running Insts:      5430000000
2720000215500: system.cpu: Running Insts:      5440000000
2725000215500: system.cpu: Running Insts:      5450000000
2730000215500: system.cpu: Running Insts:      5460000000
2735000215500: system.cpu: Running Insts:      5470000000
2740000215500: system.cpu: Running Insts:      5480000000
2745000215500: system.cpu: Running Insts:      5490000000
2750000215500: system.cpu: Running Insts:      5500000000
2755000215500: system.cpu: Running Insts:      5510000000
2760000215500: system.cpu: Running Insts:      5520000000
2765000215500: system.cpu: Running Insts:      5530000000
2770000215500: system.cpu: Running Insts:      5540000000
2775000215500: system.cpu: Running Insts:      5550000000
2780000215500: system.cpu: Running Insts:      5560000000
2785000215500: system.cpu: Running Insts:      5570000000
2790000215500: system.cpu: Running Insts:      5580000000
2795000215500: system.cpu: Running Insts:      5590000000
2800000215500: system.cpu: Running Insts:      5600000000
2805000215500: system.cpu: Running Insts:      5610000000
2810000215500: system.cpu: Running Insts:      5620000000
2815000215500: system.cpu: Running Insts:      5630000000
2820000215500: system.cpu: Running Insts:      5640000000
2825000215500: system.cpu: Running Insts:      5650000000
2830000215500: system.cpu: Running Insts:      5660000000
2835000215500: system.cpu: Running Insts:      5670000000
2840000215500: system.cpu: Running Insts:      5680000000
2845000215500: system.cpu: Running Insts:      5690000000
2850000215500: system.cpu: Running Insts:      5700000000
2855000215500: system.cpu: Running Insts:      5710000000
2860000215500: system.cpu: Running Insts:      5720000000
2865000215500: system.cpu: Running Insts:      5730000000
2870000215500: system.cpu: Running Insts:      5740000000
2875000215500: system.cpu: Running Insts:      5750000000
2880000215500: system.cpu: Running Insts:      5760000000
2885000215500: system.cpu: Running Insts:      5770000000
2890000215500: system.cpu: Running Insts:      5780000000
2895000215500: system.cpu: Running Insts:      5790000000
2900000215500: system.cpu: Running Insts:      5800000000
2905000215500: system.cpu: Running Insts:      5810000000
2910000215500: system.cpu: Running Insts:      5820000000
2915000215500: system.cpu: Running Insts:      5830000000
2920000215500: system.cpu: Running Insts:      5840000000
2925000215500: system.cpu: Running Insts:      5850000000
2930000215500: system.cpu: Running Insts:      5860000000
2935000215500: system.cpu: Running Insts:      5870000000
2940000215500: system.cpu: Running Insts:      5880000000
2945000215500: system.cpu: Running Insts:      5890000000
2950000215500: system.cpu: Running Insts:      5900000000
2955000215500: system.cpu: Running Insts:      5910000000
2960000215500: system.cpu: Running Insts:      5920000000
2965000215500: system.cpu: Running Insts:      5930000000
2970000215500: system.cpu: Running Insts:      5940000000
2975000215500: system.cpu: Running Insts:      5950000000
2980000215500: system.cpu: Running Insts:      5960000000
2985000215500: system.cpu: Running Insts:      5970000000
2990000215500: system.cpu: Running Insts:      5980000000
2995000215500: system.cpu: Running Insts:      5990000000
3000000215500: system.cpu: Running Insts:      6000000000
3005000215500: system.cpu: Running Insts:      6010000000
3010000215500: system.cpu: Running Insts:      6020000000
3015000215500: system.cpu: Running Insts:      6030000000
3020000215500: system.cpu: Running Insts:      6040000000
3025000215500: system.cpu: Running Insts:      6050000000
3030000215500: system.cpu: Running Insts:      6060000000
3035000215500: system.cpu: Running Insts:      6070000000
3040000215500: system.cpu: Running Insts:      6080000000
3045000215500: system.cpu: Running Insts:      6090000000
3050000215500: system.cpu: Running Insts:      6100000000
3055000215500: system.cpu: Running Insts:      6110000000
3060000215500: system.cpu: Running Insts:      6120000000
3065000215500: system.cpu: Running Insts:      6130000000
3070000215500: system.cpu: Running Insts:      6140000000
3075000215500: system.cpu: Running Insts:      6150000000
3080000215500: system.cpu: Running Insts:      6160000000
3085000215500: system.cpu: Running Insts:      6170000000
3090000215500: system.cpu: Running Insts:      6180000000
3095000215500: system.cpu: Running Insts:      6190000000
3100000215500: system.cpu: Running Insts:      6200000000
3105000215500: system.cpu: Running Insts:      6210000000
3110000215500: system.cpu: Running Insts:      6220000000
3115000215500: system.cpu: Running Insts:      6230000000
3120000215500: system.cpu: Running Insts:      6240000000
3125000215500: system.cpu: Running Insts:      6250000000
3130000215500: system.cpu: Running Insts:      6260000000
3135000215500: system.cpu: Running Insts:      6270000000
3140000215500: system.cpu: Running Insts:      6280000000
3145000215500: system.cpu: Running Insts:      6290000000
3150000215500: system.cpu: Running Insts:      6300000000
3155000215500: system.cpu: Running Insts:      6310000000
3160000215500: system.cpu: Running Insts:      6320000000
3165000215500: system.cpu: Running Insts:      6330000000
3170000215500: system.cpu: Running Insts:      6340000000
3175000215500: system.cpu: Running Insts:      6350000000
3180000215500: system.cpu: Running Insts:      6360000000
3185000215500: system.cpu: Running Insts:      6370000000
3190000215500: system.cpu: Running Insts:      6380000000
3195000215500: system.cpu: Running Insts:      6390000000
3200000215500: system.cpu: Running Insts:      6400000000
3205000215500: system.cpu: Running Insts:      6410000000
3210000215500: system.cpu: Running Insts:      6420000000
3215000215500: system.cpu: Running Insts:      6430000000
3220000215500: system.cpu: Running Insts:      6440000000
3225000215500: system.cpu: Running Insts:      6450000000
3230000215500: system.cpu: Running Insts:      6460000000
3235000215500: system.cpu: Running Insts:      6470000000
3240000215500: system.cpu: Running Insts:      6480000000
3245000215500: system.cpu: Running Insts:      6490000000
3250000215500: system.cpu: Running Insts:      6500000000
3255000215500: system.cpu: Running Insts:      6510000000
3260000215500: system.cpu: Running Insts:      6520000000
3265000215500: system.cpu: Running Insts:      6530000000
3270000215500: system.cpu: Running Insts:      6540000000
3275000215500: system.cpu: Running Insts:      6550000000
3280000215500: system.cpu: Running Insts:      6560000000
3285000215500: system.cpu: Running Insts:      6570000000
3290000215500: system.cpu: Running Insts:      6580000000
3295000215500: system.cpu: Running Insts:      6590000000
3300000215500: system.cpu: Running Insts:      6600000000
3305000215500: system.cpu: Running Insts:      6610000000
3310000215500: system.cpu: Running Insts:      6620000000
3315000215500: system.cpu: Running Insts:      6630000000
3320000215500: system.cpu: Running Insts:      6640000000
3325000215500: system.cpu: Running Insts:      6650000000
3330000215500: system.cpu: Running Insts:      6660000000
3335000215500: system.cpu: Running Insts:      6670000000
3340000215500: system.cpu: Running Insts:      6680000000
3345000215500: system.cpu: Running Insts:      6690000000
3350000215500: system.cpu: Running Insts:      6700000000
3355000215500: system.cpu: Running Insts:      6710000000
3360000215500: system.cpu: Running Insts:      6720000000
3365000215500: system.cpu: Running Insts:      6730000000
3370000215500: system.cpu: Running Insts:      6740000000
3375000215500: system.cpu: Running Insts:      6750000000
3380000215500: system.cpu: Running Insts:      6760000000
3385000215500: system.cpu: Running Insts:      6770000000
3390000215500: system.cpu: Running Insts:      6780000000
3395000215500: system.cpu: Running Insts:      6790000000
3400000215500: system.cpu: Running Insts:      6800000000
3405000215500: system.cpu: Running Insts:      6810000000
3410000215500: system.cpu: Running Insts:      6820000000
3415000215500: system.cpu: Running Insts:      6830000000
3420000215500: system.cpu: Running Insts:      6840000000
3425000215500: system.cpu: Running Insts:      6850000000
3430000215500: system.cpu: Running Insts:      6860000000
3435000215500: system.cpu: Running Insts:      6870000000
3440000215500: system.cpu: Running Insts:      6880000000
3445000215500: system.cpu: Running Insts:      6890000000
3450000215500: system.cpu: Running Insts:      6900000000
3455000215500: system.cpu: Running Insts:      6910000000
3460000215500: system.cpu: Running Insts:      6920000000
3465000215500: system.cpu: Running Insts:      6930000000
3470000215500: system.cpu: Running Insts:      6940000000
3475000215500: system.cpu: Running Insts:      6950000000
3480000215500: system.cpu: Running Insts:      6960000000
3485000215500: system.cpu: Running Insts:      6970000000
3490000215500: system.cpu: Running Insts:      6980000000
3495000215500: system.cpu: Running Insts:      6990000000
3500000215500: system.cpu: Running Insts:      7000000000
3505000215500: system.cpu: Running Insts:      7010000000
3510000215500: system.cpu: Running Insts:      7020000000
3515000215500: system.cpu: Running Insts:      7030000000
3520000215500: system.cpu: Running Insts:      7040000000
3525000215500: system.cpu: Running Insts:      7050000000
3530000215500: system.cpu: Running Insts:      7060000000
3535000215500: system.cpu: Running Insts:      7070000000
3540000215500: system.cpu: Running Insts:      7080000000
3545000215500: system.cpu: Running Insts:      7090000000
3550000215500: system.cpu: Running Insts:      7100000000
3555000215500: system.cpu: Running Insts:      7110000000
3560000215500: system.cpu: Running Insts:      7120000000
3565000215500: system.cpu: Running Insts:      7130000000
3570000215500: system.cpu: Running Insts:      7140000000
3575000215500: system.cpu: Running Insts:      7150000000
3580000215500: system.cpu: Running Insts:      7160000000
3585000215500: system.cpu: Running Insts:      7170000000
3590000215500: system.cpu: Running Insts:      7180000000
3595000215500: system.cpu: Running Insts:      7190000000
3600000215500: system.cpu: Running Insts:      7200000000
3605000215500: system.cpu: Running Insts:      7210000000
3610000215500: system.cpu: Running Insts:      7220000000
3615000215500: system.cpu: Running Insts:      7230000000
3620000215500: system.cpu: Running Insts:      7240000000
3625000215500: system.cpu: Running Insts:      7250000000
3630000215500: system.cpu: Running Insts:      7260000000
3635000215500: system.cpu: Running Insts:      7270000000
3640000215500: system.cpu: Running Insts:      7280000000
3645000215500: system.cpu: Running Insts:      7290000000
3650000215500: system.cpu: Running Insts:      7300000000
3655000215500: system.cpu: Running Insts:      7310000000
3660000215500: system.cpu: Running Insts:      7320000000
3665000215500: system.cpu: Running Insts:      7330000000
3670000215500: system.cpu: Running Insts:      7340000000
3675000215500: system.cpu: Running Insts:      7350000000
3680000215500: system.cpu: Running Insts:      7360000000
3685000215500: system.cpu: Running Insts:      7370000000
3690000215500: system.cpu: Running Insts:      7380000000
3695000215500: system.cpu: Running Insts:      7390000000
3700000215500: system.cpu: Running Insts:      7400000000
3705000215500: system.cpu: Running Insts:      7410000000
3710000215500: system.cpu: Running Insts:      7420000000
3715000215500: system.cpu: Running Insts:      7430000000
3720000215500: system.cpu: Running Insts:      7440000000
3725000215500: system.cpu: Running Insts:      7450000000
3730000215500: system.cpu: Running Insts:      7460000000
3735000215500: system.cpu: Running Insts:      7470000000
3740000215500: system.cpu: Running Insts:      7480000000
3745000215500: system.cpu: Running Insts:      7490000000
3750000215500: system.cpu: Running Insts:      7500000000
3755000215500: system.cpu: Running Insts:      7510000000
3760000215500: system.cpu: Running Insts:      7520000000
3765000215500: system.cpu: Running Insts:      7530000000
3770000215500: system.cpu: Running Insts:      7540000000
3775000215500: system.cpu: Running Insts:      7550000000
3780000215500: system.cpu: Running Insts:      7560000000
3785000215500: system.cpu: Running Insts:      7570000000
3790000215500: system.cpu: Running Insts:      7580000000
3795000215500: system.cpu: Running Insts:      7590000000
3800000215500: system.cpu: Running Insts:      7600000000
3805000215500: system.cpu: Running Insts:      7610000000
3810000215500: system.cpu: Running Insts:      7620000000
3815000215500: system.cpu: Running Insts:      7630000000
3820000215500: system.cpu: Running Insts:      7640000000
3825000215500: system.cpu: Running Insts:      7650000000
3830000215500: system.cpu: Running Insts:      7660000000
3835000215500: system.cpu: Running Insts:      7670000000
3840000215500: system.cpu: Running Insts:      7680000000
3845000215500: system.cpu: Running Insts:      7690000000
3850000215500: system.cpu: Running Insts:      7700000000
3855000215500: system.cpu: Running Insts:      7710000000
3860000215500: system.cpu: Running Insts:      7720000000
3865000215500: system.cpu: Running Insts:      7730000000
3870000215500: system.cpu: Running Insts:      7740000000
3875000215500: system.cpu: Running Insts:      7750000000
3880000215500: system.cpu: Running Insts:      7760000000
3885000215500: system.cpu: Running Insts:      7770000000
3890000215500: system.cpu: Running Insts:      7780000000
3895000215500: system.cpu: Running Insts:      7790000000
3900000215500: system.cpu: Running Insts:      7800000000
3905000215500: system.cpu: Running Insts:      7810000000
3910000215500: system.cpu: Running Insts:      7820000000
3915000215500: system.cpu: Running Insts:      7830000000
3920000215500: system.cpu: Running Insts:      7840000000
3925000215500: system.cpu: Running Insts:      7850000000
3930000215500: system.cpu: Running Insts:      7860000000
3935000215500: system.cpu: Running Insts:      7870000000
3940000215500: system.cpu: Running Insts:      7880000000
3945000215500: system.cpu: Running Insts:      7890000000
3950000215500: system.cpu: Running Insts:      7900000000
3955000215500: system.cpu: Running Insts:      7910000000
3960000215500: system.cpu: Running Insts:      7920000000
3965000215500: system.cpu: Running Insts:      7930000000
3970000215500: system.cpu: Running Insts:      7940000000
3975000215500: system.cpu: Running Insts:      7950000000
3980000215500: system.cpu: Running Insts:      7960000000
3985000215500: system.cpu: Running Insts:      7970000000
3990000215500: system.cpu: Running Insts:      7980000000
3995000215500: system.cpu: Running Insts:      7990000000
4000000215500: system.cpu: Running Insts:      8000000000
4005000215500: system.cpu: Running Insts:      8010000000
4010000215500: system.cpu: Running Insts:      8020000000
4015000215500: system.cpu: Running Insts:      8030000000
4020000215500: system.cpu: Running Insts:      8040000000
4025000215500: system.cpu: Running Insts:      8050000000
4030000215500: system.cpu: Running Insts:      8060000000
4035000215500: system.cpu: Running Insts:      8070000000
4040000215500: system.cpu: Running Insts:      8080000000
4045000215500: system.cpu: Running Insts:      8090000000
4050000215500: system.cpu: Running Insts:      8100000000
4055000215500: system.cpu: Running Insts:      8110000000
4060000215500: system.cpu: Running Insts:      8120000000
4065000215500: system.cpu: Running Insts:      8130000000
4070000215500: system.cpu: Running Insts:      8140000000
4075000215500: system.cpu: Running Insts:      8150000000
4080000215500: system.cpu: Running Insts:      8160000000
4085000215500: system.cpu: Running Insts:      8170000000
4090000215500: system.cpu: Running Insts:      8180000000
4095000215500: system.cpu: Running Insts:      8190000000
4100000215500: system.cpu: Running Insts:      8200000000
4105000215500: system.cpu: Running Insts:      8210000000
4110000215500: system.cpu: Running Insts:      8220000000
4115000215500: system.cpu: Running Insts:      8230000000
4120000215500: system.cpu: Running Insts:      8240000000
4125000215500: system.cpu: Running Insts:      8250000000
4130000215500: system.cpu: Running Insts:      8260000000
4135000215500: system.cpu: Running Insts:      8270000000
4140000215500: system.cpu: Running Insts:      8280000000
4145000215500: system.cpu: Running Insts:      8290000000
4150000215500: system.cpu: Running Insts:      8300000000
4155000215500: system.cpu: Running Insts:      8310000000
4160000215500: system.cpu: Running Insts:      8320000000
4165000215500: system.cpu: Running Insts:      8330000000
4170000215500: system.cpu: Running Insts:      8340000000
4175000215500: system.cpu: Running Insts:      8350000000
4180000215500: system.cpu: Running Insts:      8360000000
4185000215500: system.cpu: Running Insts:      8370000000
4190000215500: system.cpu: Running Insts:      8380000000
4195000215500: system.cpu: Running Insts:      8390000000
4200000215500: system.cpu: Running Insts:      8400000000
4205000215500: system.cpu: Running Insts:      8410000000
4210000215500: system.cpu: Running Insts:      8420000000
4215000215500: system.cpu: Running Insts:      8430000000
4220000215500: system.cpu: Running Insts:      8440000000
4225000215500: system.cpu: Running Insts:      8450000000
4230000215500: system.cpu: Running Insts:      8460000000
4235000215500: system.cpu: Running Insts:      8470000000
4240000215500: system.cpu: Running Insts:      8480000000
4245000215500: system.cpu: Running Insts:      8490000000
4250000215500: system.cpu: Running Insts:      8500000000
4255000215500: system.cpu: Running Insts:      8510000000
4260000215500: system.cpu: Running Insts:      8520000000
4265000215500: system.cpu: Running Insts:      8530000000
4270000215500: system.cpu: Running Insts:      8540000000
4275000215500: system.cpu: Running Insts:      8550000000
4280000215500: system.cpu: Running Insts:      8560000000
4285000215500: system.cpu: Running Insts:      8570000000
4290000215500: system.cpu: Running Insts:      8580000000
4295000215500: system.cpu: Running Insts:      8590000000
4300000215500: system.cpu: Running Insts:      8600000000
4305000215500: system.cpu: Running Insts:      8610000000
4310000215500: system.cpu: Running Insts:      8620000000
4315000215500: system.cpu: Running Insts:      8630000000
4320000215500: system.cpu: Running Insts:      8640000000
4325000215500: system.cpu: Running Insts:      8650000000
4330000215500: system.cpu: Running Insts:      8660000000
4335000215500: system.cpu: Running Insts:      8670000000
4340000215500: system.cpu: Running Insts:      8680000000
4345000215500: system.cpu: Running Insts:      8690000000
4350000215500: system.cpu: Running Insts:      8700000000
4355000215500: system.cpu: Running Insts:      8710000000
4360000215500: system.cpu: Running Insts:      8720000000
4365000215500: system.cpu: Running Insts:      8730000000
4370000215500: system.cpu: Running Insts:      8740000000
4375000215500: system.cpu: Running Insts:      8750000000
4380000215500: system.cpu: Running Insts:      8760000000
4385000215500: system.cpu: Running Insts:      8770000000
4390000215500: system.cpu: Running Insts:      8780000000
4395000215500: system.cpu: Running Insts:      8790000000
4400000215500: system.cpu: Running Insts:      8800000000
4405000215500: system.cpu: Running Insts:      8810000000
4410000215500: system.cpu: Running Insts:      8820000000
4415000215500: system.cpu: Running Insts:      8830000000
4420000215500: system.cpu: Running Insts:      8840000000
4425000215500: system.cpu: Running Insts:      8850000000
4430000215500: system.cpu: Running Insts:      8860000000
4435000215500: system.cpu: Running Insts:      8870000000
4440000215500: system.cpu: Running Insts:      8880000000
4445000215500: system.cpu: Running Insts:      8890000000
4450000215500: system.cpu: Running Insts:      8900000000
4455000215500: system.cpu: Running Insts:      8910000000
4460000215500: system.cpu: Running Insts:      8920000000
4465000215500: system.cpu: Running Insts:      8930000000
4470000215500: system.cpu: Running Insts:      8940000000
4475000215500: system.cpu: Running Insts:      8950000000
4480000215500: system.cpu: Running Insts:      8960000000
4485000215500: system.cpu: Running Insts:      8970000000
4490000215500: system.cpu: Running Insts:      8980000000
4495000215500: system.cpu: Running Insts:      8990000000
4500000215500: system.cpu: Running Insts:      9000000000
4505000215500: system.cpu: Running Insts:      9010000000
4510000215500: system.cpu: Running Insts:      9020000000
4515000215500: system.cpu: Running Insts:      9030000000
4520000215500: system.cpu: Running Insts:      9040000000
4525000215500: system.cpu: Running Insts:      9050000000
4530000215500: system.cpu: Running Insts:      9060000000
4535000215500: system.cpu: Running Insts:      9070000000
4540000215500: system.cpu: Running Insts:      9080000000
4545000215500: system.cpu: Running Insts:      9090000000
4550000215500: system.cpu: Running Insts:      9100000000
4555000215500: system.cpu: Running Insts:      9110000000
4560000215500: system.cpu: Running Insts:      9120000000
4565000215500: system.cpu: Running Insts:      9130000000
4570000215500: system.cpu: Running Insts:      9140000000
4575000215500: system.cpu: Running Insts:      9150000000
4580000215500: system.cpu: Running Insts:      9160000000
4585000215500: system.cpu: Running Insts:      9170000000
4590000215500: system.cpu: Running Insts:      9180000000
4595000215500: system.cpu: Running Insts:      9190000000
4600000215500: system.cpu: Running Insts:      9200000000
4605000215500: system.cpu: Running Insts:      9210000000
4610000215500: system.cpu: Running Insts:      9220000000
4615000215500: system.cpu: Running Insts:      9230000000
4620000215500: system.cpu: Running Insts:      9240000000
4625000215500: system.cpu: Running Insts:      9250000000
4630000215500: system.cpu: Running Insts:      9260000000
4635000215500: system.cpu: Running Insts:      9270000000
4640000215500: system.cpu: Running Insts:      9280000000
4645000215500: system.cpu: Running Insts:      9290000000
4650000215500: system.cpu: Running Insts:      9300000000
4655000215500: system.cpu: Running Insts:      9310000000
4660000215500: system.cpu: Running Insts:      9320000000
4665000215500: system.cpu: Running Insts:      9330000000
4670000215500: system.cpu: Running Insts:      9340000000
4675000215500: system.cpu: Running Insts:      9350000000
4680000215500: system.cpu: Running Insts:      9360000000
4685000215500: system.cpu: Running Insts:      9370000000
4690000215500: system.cpu: Running Insts:      9380000000
4695000215500: system.cpu: Running Insts:      9390000000
4700000215500: system.cpu: Running Insts:      9400000000
4705000215500: system.cpu: Running Insts:      9410000000
4710000215500: system.cpu: Running Insts:      9420000000
4715000215500: system.cpu: Running Insts:      9430000000
4720000215500: system.cpu: Running Insts:      9440000000
4725000215500: system.cpu: Running Insts:      9450000000
4730000215500: system.cpu: Running Insts:      9460000000
4735000215500: system.cpu: Running Insts:      9470000000
4740000215500: system.cpu: Running Insts:      9480000000
4745000215500: system.cpu: Running Insts:      9490000000
4750000215500: system.cpu: Running Insts:      9500000000
4755000215500: system.cpu: Running Insts:      9510000000
4760000215500: system.cpu: Running Insts:      9520000000
4765000215500: system.cpu: Running Insts:      9530000000
4770000215500: system.cpu: Running Insts:      9540000000
4775000215500: system.cpu: Running Insts:      9550000000
4780000215500: system.cpu: Running Insts:      9560000000
4785000215500: system.cpu: Running Insts:      9570000000
4790000215500: system.cpu: Running Insts:      9580000000
4795000215500: system.cpu: Running Insts:      9590000000
4800000215500: system.cpu: Running Insts:      9600000000
4805000215500: system.cpu: Running Insts:      9610000000
4810000215500: system.cpu: Running Insts:      9620000000
4815000215500: system.cpu: Running Insts:      9630000000
4820000215500: system.cpu: Running Insts:      9640000000
4825000215500: system.cpu: Running Insts:      9650000000
4830000215500: system.cpu: Running Insts:      9660000000
4835000215500: system.cpu: Running Insts:      9670000000
4840000215500: system.cpu: Running Insts:      9680000000
4845000215500: system.cpu: Running Insts:      9690000000
4850000215500: system.cpu: Running Insts:      9700000000
4855000215500: system.cpu: Running Insts:      9710000000
4860000215500: system.cpu: Running Insts:      9720000000
4865000215500: system.cpu: Running Insts:      9730000000
4870000215500: system.cpu: Running Insts:      9740000000
4875000215500: system.cpu: Running Insts:      9750000000
4880000215500: system.cpu: Running Insts:      9760000000
4885000215500: system.cpu: Running Insts:      9770000000
4890000215500: system.cpu: Running Insts:      9780000000
4895000215500: system.cpu: Running Insts:      9790000000
4900000215500: system.cpu: Running Insts:      9800000000
4905000215500: system.cpu: Running Insts:      9810000000
4910000215500: system.cpu: Running Insts:      9820000000
4915000215500: system.cpu: Running Insts:      9830000000
4920000215500: system.cpu: Running Insts:      9840000000
4925000215500: system.cpu: Running Insts:      9850000000
4930000215500: system.cpu: Running Insts:      9860000000
4935000215500: system.cpu: Running Insts:      9870000000
4940000215500: system.cpu: Running Insts:      9880000000
4945000215500: system.cpu: Running Insts:      9890000000
4950000215500: system.cpu: Running Insts:      9900000000
4955000215500: system.cpu: Running Insts:      9910000000
4960000215500: system.cpu: Running Insts:      9920000000
4965000215500: system.cpu: Running Insts:      9930000000
4970000215500: system.cpu: Running Insts:      9940000000
4975000215500: system.cpu: Running Insts:      9950000000
4980000215500: system.cpu: Running Insts:      9960000000
4985000215500: system.cpu: Running Insts:      9970000000
4990000215500: system.cpu: Running Insts:      9980000000
4995000215500: system.cpu: Running Insts:      9990000000
5000000215500: system.cpu: Running Insts:     10000000000
5005000215500: system.cpu: Running Insts:     10010000000
5010000215500: system.cpu: Running Insts:     10020000000
5015000215500: system.cpu: Running Insts:     10030000000
5020000215500: system.cpu: Running Insts:     10040000000
5025000215500: system.cpu: Running Insts:     10050000000
5030000215500: system.cpu: Running Insts:     10060000000
5035000215500: system.cpu: Running Insts:     10070000000
5040000215500: system.cpu: Running Insts:     10080000000
5045000215500: system.cpu: Running Insts:     10090000000
5050000215500: system.cpu: Running Insts:     10100000000
5055000215500: system.cpu: Running Insts:     10110000000
5060000215500: system.cpu: Running Insts:     10120000000
5065000215500: system.cpu: Running Insts:     10130000000
5070000215500: system.cpu: Running Insts:     10140000000
5075000215500: system.cpu: Running Insts:     10150000000
5080000215500: system.cpu: Running Insts:     10160000000
5085000215500: system.cpu: Running Insts:     10170000000
5090000215500: system.cpu: Running Insts:     10180000000
5095000215500: system.cpu: Running Insts:     10190000000
5100000215500: system.cpu: Running Insts:     10200000000
5105000215500: system.cpu: Running Insts:     10210000000
5110000215500: system.cpu: Running Insts:     10220000000
5115000215500: system.cpu: Running Insts:     10230000000
5120000215500: system.cpu: Running Insts:     10240000000
5125000215500: system.cpu: Running Insts:     10250000000
5130000215500: system.cpu: Running Insts:     10260000000
5135000215500: system.cpu: Running Insts:     10270000000
5140000215500: system.cpu: Running Insts:     10280000000
5145000215500: system.cpu: Running Insts:     10290000000
5150000215500: system.cpu: Running Insts:     10300000000
5155000215500: system.cpu: Running Insts:     10310000000
5160000215500: system.cpu: Running Insts:     10320000000
5165000215500: system.cpu: Running Insts:     10330000000
5170000215500: system.cpu: Running Insts:     10340000000
5175000215500: system.cpu: Running Insts:     10350000000
5180000215500: system.cpu: Running Insts:     10360000000
5185000215500: system.cpu: Running Insts:     10370000000
5190000215500: system.cpu: Running Insts:     10380000000
5195000215500: system.cpu: Running Insts:     10390000000
5200000215500: system.cpu: Running Insts:     10400000000
5205000215500: system.cpu: Running Insts:     10410000000
5210000215500: system.cpu: Running Insts:     10420000000
5215000215500: system.cpu: Running Insts:     10430000000
5220000215500: system.cpu: Running Insts:     10440000000
5225000215500: system.cpu: Running Insts:     10450000000
5230000215500: system.cpu: Running Insts:     10460000000
5235000215500: system.cpu: Running Insts:     10470000000
5240000215500: system.cpu: Running Insts:     10480000000
5245000215500: system.cpu: Running Insts:     10490000000
5250000215500: system.cpu: Running Insts:     10500000000
5255000215500: system.cpu: Running Insts:     10510000000
5260000215500: system.cpu: Running Insts:     10520000000
5265000215500: system.cpu: Running Insts:     10530000000
5270000215500: system.cpu: Running Insts:     10540000000
5275000215500: system.cpu: Running Insts:     10550000000
5280000215500: system.cpu: Running Insts:     10560000000
5285000215500: system.cpu: Running Insts:     10570000000
5290000215500: system.cpu: Running Insts:     10580000000
5295000215500: system.cpu: Running Insts:     10590000000
5300000215500: system.cpu: Running Insts:     10600000000
5305000215500: system.cpu: Running Insts:     10610000000
5310000215500: system.cpu: Running Insts:     10620000000
5315000215500: system.cpu: Running Insts:     10630000000
5320000215500: system.cpu: Running Insts:     10640000000
5325000215500: system.cpu: Running Insts:     10650000000
5330000215500: system.cpu: Running Insts:     10660000000
5335000215500: system.cpu: Running Insts:     10670000000
5340000215500: system.cpu: Running Insts:     10680000000
5345000215500: system.cpu: Running Insts:     10690000000
5350000215500: system.cpu: Running Insts:     10700000000
5355000215500: system.cpu: Running Insts:     10710000000
5360000215500: system.cpu: Running Insts:     10720000000
5365000215500: system.cpu: Running Insts:     10730000000
5370000215500: system.cpu: Running Insts:     10740000000
5375000215500: system.cpu: Running Insts:     10750000000
5380000215500: system.cpu: Running Insts:     10760000000
5385000215500: system.cpu: Running Insts:     10770000000
5390000215500: system.cpu: Running Insts:     10780000000
5395000215500: system.cpu: Running Insts:     10790000000
5400000215500: system.cpu: Running Insts:     10800000000
5405000215500: system.cpu: Running Insts:     10810000000
5410000215500: system.cpu: Running Insts:     10820000000
5415000215500: system.cpu: Running Insts:     10830000000
5420000215500: system.cpu: Running Insts:     10840000000
5425000215500: system.cpu: Running Insts:     10850000000
5430000215500: system.cpu: Running Insts:     10860000000
5435000215500: system.cpu: Running Insts:     10870000000
5440000215500: system.cpu: Running Insts:     10880000000
5445000215500: system.cpu: Running Insts:     10890000000
5450000215500: system.cpu: Running Insts:     10900000000
5455000215500: system.cpu: Running Insts:     10910000000
5460000215500: system.cpu: Running Insts:     10920000000
5465000215500: system.cpu: Running Insts:     10930000000
5470000215500: system.cpu: Running Insts:     10940000000
5475000215500: system.cpu: Running Insts:     10950000000
5480000215500: system.cpu: Running Insts:     10960000000
5485000215500: system.cpu: Running Insts:     10970000000
5490000215500: system.cpu: Running Insts:     10980000000
5495000215500: system.cpu: Running Insts:     10990000000
5500000215500: system.cpu: Running Insts:     11000000000
5505000215500: system.cpu: Running Insts:     11010000000
5510000215500: system.cpu: Running Insts:     11020000000
5515000215500: system.cpu: Running Insts:     11030000000
5520000215500: system.cpu: Running Insts:     11040000000
5525000215500: system.cpu: Running Insts:     11050000000
5530000215500: system.cpu: Running Insts:     11060000000
5535000215500: system.cpu: Running Insts:     11070000000
5540000215500: system.cpu: Running Insts:     11080000000
5545000215500: system.cpu: Running Insts:     11090000000
5550000215500: system.cpu: Running Insts:     11100000000
5555000215500: system.cpu: Running Insts:     11110000000
5560000215500: system.cpu: Running Insts:     11120000000
5565000215500: system.cpu: Running Insts:     11130000000
5570000215500: system.cpu: Running Insts:     11140000000
5575000215500: system.cpu: Running Insts:     11150000000
5580000215500: system.cpu: Running Insts:     11160000000
5585000215500: system.cpu: Running Insts:     11170000000
5590000215500: system.cpu: Running Insts:     11180000000
5595000215500: system.cpu: Running Insts:     11190000000
5600000215500: system.cpu: Running Insts:     11200000000
5605000215500: system.cpu: Running Insts:     11210000000
5610000215500: system.cpu: Running Insts:     11220000000
5615000215500: system.cpu: Running Insts:     11230000000
5620000215500: system.cpu: Running Insts:     11240000000
5625000215500: system.cpu: Running Insts:     11250000000
5630000215500: system.cpu: Running Insts:     11260000000
5635000215500: system.cpu: Running Insts:     11270000000
5640000215500: system.cpu: Running Insts:     11280000000
5645000215500: system.cpu: Running Insts:     11290000000
5650000215500: system.cpu: Running Insts:     11300000000
5655000215500: system.cpu: Running Insts:     11310000000
5660000215500: system.cpu: Running Insts:     11320000000
5665000215500: system.cpu: Running Insts:     11330000000
5670000215500: system.cpu: Running Insts:     11340000000
5675000215500: system.cpu: Running Insts:     11350000000
5680000215500: system.cpu: Running Insts:     11360000000
5685000215500: system.cpu: Running Insts:     11370000000
5690000215500: system.cpu: Running Insts:     11380000000
5695000215500: system.cpu: Running Insts:     11390000000
5700000215500: system.cpu: Running Insts:     11400000000
5705000215500: system.cpu: Running Insts:     11410000000
5710000215500: system.cpu: Running Insts:     11420000000
5715000215500: system.cpu: Running Insts:     11430000000
5720000215500: system.cpu: Running Insts:     11440000000
5725000215500: system.cpu: Running Insts:     11450000000
5730000215500: system.cpu: Running Insts:     11460000000
5735000215500: system.cpu: Running Insts:     11470000000
5740000215500: system.cpu: Running Insts:     11480000000
5745000215500: system.cpu: Running Insts:     11490000000
5750000215500: system.cpu: Running Insts:     11500000000
5755000215500: system.cpu: Running Insts:     11510000000
5760000215500: system.cpu: Running Insts:     11520000000
5765000215500: system.cpu: Running Insts:     11530000000
5770000215500: system.cpu: Running Insts:     11540000000
5775000215500: system.cpu: Running Insts:     11550000000
5780000215500: system.cpu: Running Insts:     11560000000
5785000215500: system.cpu: Running Insts:     11570000000
5790000215500: system.cpu: Running Insts:     11580000000
5795000215500: system.cpu: Running Insts:     11590000000
5800000215500: system.cpu: Running Insts:     11600000000
5805000215500: system.cpu: Running Insts:     11610000000
5810000215500: system.cpu: Running Insts:     11620000000
5815000215500: system.cpu: Running Insts:     11630000000
5820000215500: system.cpu: Running Insts:     11640000000
5825000215500: system.cpu: Running Insts:     11650000000
5830000215500: system.cpu: Running Insts:     11660000000
5835000215500: system.cpu: Running Insts:     11670000000
5840000215500: system.cpu: Running Insts:     11680000000
5845000215500: system.cpu: Running Insts:     11690000000
5850000215500: system.cpu: Running Insts:     11700000000
5855000215500: system.cpu: Running Insts:     11710000000
5860000215500: system.cpu: Running Insts:     11720000000
5865000215500: system.cpu: Running Insts:     11730000000
5870000215500: system.cpu: Running Insts:     11740000000
5875000215500: system.cpu: Running Insts:     11750000000
5880000215500: system.cpu: Running Insts:     11760000000
5885000215500: system.cpu: Running Insts:     11770000000
5890000215500: system.cpu: Running Insts:     11780000000
5895000215500: system.cpu: Running Insts:     11790000000
5900000215500: system.cpu: Running Insts:     11800000000
5905000215500: system.cpu: Running Insts:     11810000000
5910000215500: system.cpu: Running Insts:     11820000000
5915000215500: system.cpu: Running Insts:     11830000000
5920000215500: system.cpu: Running Insts:     11840000000
5925000215500: system.cpu: Running Insts:     11850000000
5930000215500: system.cpu: Running Insts:     11860000000
5935000215500: system.cpu: Running Insts:     11870000000
5940000215500: system.cpu: Running Insts:     11880000000
5945000215500: system.cpu: Running Insts:     11890000000
5950000215500: system.cpu: Running Insts:     11900000000
5955000215500: system.cpu: Running Insts:     11910000000
5960000215500: system.cpu: Running Insts:     11920000000
5965000215500: system.cpu: Running Insts:     11930000000
5970000215500: system.cpu: Running Insts:     11940000000
5975000215500: system.cpu: Running Insts:     11950000000
5980000215500: system.cpu: Running Insts:     11960000000
5985000215500: system.cpu: Running Insts:     11970000000
5990000215500: system.cpu: Running Insts:     11980000000
5995000215500: system.cpu: Running Insts:     11990000000
6000000215500: system.cpu: Running Insts:     12000000000
6005000215500: system.cpu: Running Insts:     12010000000
6010000215500: system.cpu: Running Insts:     12020000000
6015000215500: system.cpu: Running Insts:     12030000000
6020000215500: system.cpu: Running Insts:     12040000000
6025000215500: system.cpu: Running Insts:     12050000000
6030000215500: system.cpu: Running Insts:     12060000000
6035000215500: system.cpu: Running Insts:     12070000000
6040000215500: system.cpu: Running Insts:     12080000000
6045000215500: system.cpu: Running Insts:     12090000000
6050000215500: system.cpu: Running Insts:     12100000000
6055000215500: system.cpu: Running Insts:     12110000000
6060000215500: system.cpu: Running Insts:     12120000000
6065000215500: system.cpu: Running Insts:     12130000000
6070000215500: system.cpu: Running Insts:     12140000000
6075000215500: system.cpu: Running Insts:     12150000000
6080000215500: system.cpu: Running Insts:     12160000000
6085000215500: system.cpu: Running Insts:     12170000000
6090000215500: system.cpu: Running Insts:     12180000000
6095000215500: system.cpu: Running Insts:     12190000000
6100000215500: system.cpu: Running Insts:     12200000000
6105000215500: system.cpu: Running Insts:     12210000000
6110000215500: system.cpu: Running Insts:     12220000000
6115000215500: system.cpu: Running Insts:     12230000000
6120000215500: system.cpu: Running Insts:     12240000000
6125000215500: system.cpu: Running Insts:     12250000000
6130000215500: system.cpu: Running Insts:     12260000000
6135000215500: system.cpu: Running Insts:     12270000000
6140000215500: system.cpu: Running Insts:     12280000000
6145000215500: system.cpu: Running Insts:     12290000000
6150000215500: system.cpu: Running Insts:     12300000000
6155000215500: system.cpu: Running Insts:     12310000000
6160000215500: system.cpu: Running Insts:     12320000000
6165000215500: system.cpu: Running Insts:     12330000000
6170000215500: system.cpu: Running Insts:     12340000000
6175000215500: system.cpu: Running Insts:     12350000000
6180000215500: system.cpu: Running Insts:     12360000000
6185000215500: system.cpu: Running Insts:     12370000000
6190000215500: system.cpu: Running Insts:     12380000000
6195000215500: system.cpu: Running Insts:     12390000000
6200000215500: system.cpu: Running Insts:     12400000000
6205000215500: system.cpu: Running Insts:     12410000000
6210000215500: system.cpu: Running Insts:     12420000000
6215000215500: system.cpu: Running Insts:     12430000000
6220000215500: system.cpu: Running Insts:     12440000000
6225000215500: system.cpu: Running Insts:     12450000000
6230000215500: system.cpu: Running Insts:     12460000000
6235000215500: system.cpu: Running Insts:     12470000000
6240000215500: system.cpu: Running Insts:     12480000000
6245000215500: system.cpu: Running Insts:     12490000000
6250000215500: system.cpu: Running Insts:     12500000000
6255000215500: system.cpu: Running Insts:     12510000000
6260000215500: system.cpu: Running Insts:     12520000000
6265000215500: system.cpu: Running Insts:     12530000000
6270000215500: system.cpu: Running Insts:     12540000000
6275000215500: system.cpu: Running Insts:     12550000000
6280000215500: system.cpu: Running Insts:     12560000000
6285000215500: system.cpu: Running Insts:     12570000000
6290000215500: system.cpu: Running Insts:     12580000000
6295000215500: system.cpu: Running Insts:     12590000000
6300000215500: system.cpu: Running Insts:     12600000000
6305000215500: system.cpu: Running Insts:     12610000000
6310000215500: system.cpu: Running Insts:     12620000000
6315000215500: system.cpu: Running Insts:     12630000000
6320000215500: system.cpu: Running Insts:     12640000000
6325000215500: system.cpu: Running Insts:     12650000000
6330000215500: system.cpu: Running Insts:     12660000000
6335000215500: system.cpu: Running Insts:     12670000000
6340000215500: system.cpu: Running Insts:     12680000000
6345000215500: system.cpu: Running Insts:     12690000000
6350000215500: system.cpu: Running Insts:     12700000000
6355000215500: system.cpu: Running Insts:     12710000000
6360000215500: system.cpu: Running Insts:     12720000000
6365000215500: system.cpu: Running Insts:     12730000000
6370000215500: system.cpu: Running Insts:     12740000000
6375000215500: system.cpu: Running Insts:     12750000000
6380000215500: system.cpu: Running Insts:     12760000000
6385000215500: system.cpu: Running Insts:     12770000000
6390000215500: system.cpu: Running Insts:     12780000000
6395000215500: system.cpu: Running Insts:     12790000000
6400000215500: system.cpu: Running Insts:     12800000000
6405000215500: system.cpu: Running Insts:     12810000000
6410000215500: system.cpu: Running Insts:     12820000000
6415000215500: system.cpu: Running Insts:     12830000000
6420000215500: system.cpu: Running Insts:     12840000000
6425000215500: system.cpu: Running Insts:     12850000000
6430000215500: system.cpu: Running Insts:     12860000000
6435000215500: system.cpu: Running Insts:     12870000000
6440000215500: system.cpu: Running Insts:     12880000000
6445000215500: system.cpu: Running Insts:     12890000000
6450000215500: system.cpu: Running Insts:     12900000000
6455000215500: system.cpu: Running Insts:     12910000000
6460000215500: system.cpu: Running Insts:     12920000000
6465000215500: system.cpu: Running Insts:     12930000000
6470000215500: system.cpu: Running Insts:     12940000000
6475000215500: system.cpu: Running Insts:     12950000000
6480000215500: system.cpu: Running Insts:     12960000000
6485000215500: system.cpu: Running Insts:     12970000000
6490000215500: system.cpu: Running Insts:     12980000000
6495000215500: system.cpu: Running Insts:     12990000000
6500000215500: system.cpu: Running Insts:     13000000000
6505000215500: system.cpu: Running Insts:     13010000000
6510000215500: system.cpu: Running Insts:     13020000000
6515000215500: system.cpu: Running Insts:     13030000000
6520000215500: system.cpu: Running Insts:     13040000000
6525000215500: system.cpu: Running Insts:     13050000000
6530000215500: system.cpu: Running Insts:     13060000000
6535000215500: system.cpu: Running Insts:     13070000000
6540000215500: system.cpu: Running Insts:     13080000000
6545000215500: system.cpu: Running Insts:     13090000000
6550000215500: system.cpu: Running Insts:     13100000000
6555000215500: system.cpu: Running Insts:     13110000000
6560000215500: system.cpu: Running Insts:     13120000000
6565000215500: system.cpu: Running Insts:     13130000000
6570000215500: system.cpu: Running Insts:     13140000000
6575000215500: system.cpu: Running Insts:     13150000000
6580000215500: system.cpu: Running Insts:     13160000000
6585000215500: system.cpu: Running Insts:     13170000000
6590000215500: system.cpu: Running Insts:     13180000000
6595000215500: system.cpu: Running Insts:     13190000000
6600000215500: system.cpu: Running Insts:     13200000000
6605000215500: system.cpu: Running Insts:     13210000000
6610000215500: system.cpu: Running Insts:     13220000000
6615000215500: system.cpu: Running Insts:     13230000000
6620000215500: system.cpu: Running Insts:     13240000000
6625000215500: system.cpu: Running Insts:     13250000000
6630000215500: system.cpu: Running Insts:     13260000000
6635000215500: system.cpu: Running Insts:     13270000000
6640000215500: system.cpu: Running Insts:     13280000000
6645000215500: system.cpu: Running Insts:     13290000000
6650000215500: system.cpu: Running Insts:     13300000000
6655000215500: system.cpu: Running Insts:     13310000000
6660000215500: system.cpu: Running Insts:     13320000000
6665000215500: system.cpu: Running Insts:     13330000000
6670000215500: system.cpu: Running Insts:     13340000000
6675000215500: system.cpu: Running Insts:     13350000000
6680000215500: system.cpu: Running Insts:     13360000000
6685000215500: system.cpu: Running Insts:     13370000000
6690000215500: system.cpu: Running Insts:     13380000000
6695000215500: system.cpu: Running Insts:     13390000000
6700000215500: system.cpu: Running Insts:     13400000000
[...]
  Variances/cluster: 0.00517898 0.00847848 0.0471058 0.00733362 0.0103626 0.156952 0.0221245 0.0178841 0.0208533 0.0284071 0.0302575 0.00752161 0.00629351 0.0261355 0.050997 
  --------------------------------------------------------------
  Initialization seed trial #2 of 5; initialization seed = 493575237
  --------------------------------------------------------------
  Initialized k-means centers using random sampling: 15 centers
  Number of k-means iterations performed: 40
  BIC score: 76579.6
  Distortion: 77.7213
  Distortions/cluster: 5.47018 0.910965 6.85232 4.76294 10.978 1.48185 1.44876 1.96911 5.72776 4.20353 6.91659 0.663715 12.2142 12.3917 1.72967 
  Variance: 0.02451
  Variances/cluster: 0.0173656 0.00792144 0.0238757 0.0188259 0.027863 0.0103626 0.0284071 0.0062117 0.0329182 0.00829099 0.0326254 0.00762891 0.109055 0.107754 0.0194345 
  --------------------------------------------------------------
  Initialization seed trial #3 of 5; initialization seed = 493575238
  --------------------------------------------------------------
  Initialized k-means centers using random sampling: 15 centers
  Number of k-means iterations performed: 31
  BIC score: 76437.9
  Distortion: 77.6334
  Distortions/cluster: 3.20403 12.064 1.72967 12.2142 7.39037 1.73877 8.22257 2.89926 4.75718 6.81089 4.5966 5.63011 0.490002 3.61295 2.27282 
  Variance: 0.0244823
  Variances/cluster: 0.0078723 0.109673 0.0194345 0.109055 0.0187098 0.0289795 0.0306812 0.0121818 0.0204171 0.0324328 0.0184602 0.032544 0.0038889 0.0111168 0.0129137 
  --------------------------------------------------------------
  Initialization seed trial #4 of 5; initialization seed = 493575239
  --------------------------------------------------------------
  Initialized k-means centers using random sampling: 15 centers
  Number of k-means iterations performed: 47
  BIC score: 76529.1
  Distortion: 77.9248
  Distortions/cluster: 5.61143 1.48185 9.40741 6.65196 1.44876 11.4922 5.58697 7.97507 11.0932 1.96911 1.81066 4.13853 7.68299 0.910965 0.663715 
  Variance: 0.0245742
  Variances/cluster: 0.0210956 0.0103626 0.0289459 0.0351956 0.0284071 0.103533 0.0174049 0.0333685 0.142221 0.0062117 0.0201185 0.00824408 0.0227982 0.00792144 0.00762891 
  --------------------------------------------------------------
  Initialization seed trial #5 of 5; initialization seed = 493575240
  --------------------------------------------------------------
  Initialized k-means centers using random sampling: 15 centers
  Number of k-means iterations performed: 21
  BIC score: 75929.5
  Distortion: 79.0634
  Distortions/cluster: 4.9403 2.01709 4.06088 12.2142 1.75705 7.02026 2.64164 3.73184 6.64498 7.91285 1.48185 8.54624 5.44335 8.99466 1.65623 
  Variance: 0.0249333
  Variances/cluster: 0.0760047 0.00630342 0.0158628 0.109055 0.00791464 0.0185231 0.0137585 0.0149873 0.0340768 0.03067 0.0103626 0.0776931 0.020311 0.0286454 0.0188208 
  The best initialization seed trial was #2

--------------------------------------------------------------
Run number 4 of at most 7, k = 22
--------------------------------------------------------------
  --------------------------------------------------------------
  Initialization seed trial #1 of 5; initialization seed = 493575241
  --------------------------------------------------------------
  Initialized k-means centers using random sampling: 22 centers
  Number of k-means iterations performed: 24
  BIC score: 84251.9
  Distortion: 52.7305
  Distortions/cluster: 0.490002 1.69147 1.26286 0.593136 0.461848 4.88669 2.28759 3.29639 2.52702 1.94323 2.5973 2.55579 5.16075 2.96362 0.912222 4.97516 2.46345 1.47274 3.65076 0.780375 3.78899 1.96908 
  Variance: 0.0166658
  Variances/cluster: 0.0038889 0.0272817 0.0061603 0.0191334 0.00721637 0.13962 0.0204249 0.0183133 0.0180502 0.0123773 0.123681 0.00707975 0.0318565 0.0126111 0.00661031 0.0253835 0.00765045 0.0283219 0.0195228 0.0130063 0.0165458 0.0221245 
  --------------------------------------------------------------
  Initialization seed trial #2 of 5; initialization seed = 493575242
  --------------------------------------------------------------
  Initialized k-means centers using random sampling: 22 centers
  Number of k-means iterations performed: 21
  BIC score: 80461.4
  Distortion: 61.5387
  Distortions/cluster: 1.94323 0.879504 3.41501 12.2142 2.55579 1.47274 2.10727 1.95812 2.89127 2.39938 2.88208 1.74863 0.486096 1.77299 3.00262 1.89081 1.48185 5.00816 4.44979 3.29847 2.34785 1.33291 
  Variance: 0.0194497
  Variances/cluster: 0.0123773 0.0274845 0.016906 0.109055 0.00707975 0.0283219 0.0135953 0.0124721 0.0176297 0.028228 0.0335126 0.00794833 0.00823891 0.0139606 0.0129983 0.00621977 0.0103626 0.036291 0.0488988 0.14993 0.0120403 0.0187734 
  --------------------------------------------------------------
  Initialization seed trial #3 of 5; initialization seed = 493575243
  --------------------------------------------------------------
  Initialized k-means centers using random sampling: 22 centers
  Number of k-means iterations performed: 26
  BIC score: 84606.6
  Distortion: 52.0686
  Distortions/cluster: 1.72967 2.21844 1.96908 4.09485 5.29119 5.31401 4.59286 2.28812 0.451609 1.54487 0.841374 1.07896 1.33893 2.98926 1.49466 0.774753 2.85519 1.99775 4.13527 3.5667 1.01104 0.490002 
  Variance: 0.0164566
  Variances/cluster: 0.0194345 0.00806707 0.0221245 0.0172778 0.0320678 0.147611 0.0255159 0.0181597 0.0150536 0.102991 0.00849873 0.0093823 0.00456972 0.00762566 0.0276788 0.0276697 0.0261944 0.0107406 0.0198811 0.018385 0.00856815 0.0038889 
  --------------------------------------------------------------
  Initialization seed trial #4 of 5; initialization seed = 493575244
  --------------------------------------------------------------
  Initialized k-means centers using random sampling: 22 centers
  Number of k-means iterations performed: 54
  BIC score: 81851.3
  Distortion: 58.7983
  Distortions/cluster: 0.644946 1.96908 0.384186 0.535425 5.42027 4.3883 0.734675 3.87075 3.60819 2.98151 0.528556 4.41444 0.490002 0.819993 7.04694 8.16907 5.31401 0.829799 0.685236 4.24714 1.1373 0.578442 
  Variance: 0.0185835
  Variances/cluster: 0.0033591 0.0221245 0.0103834 0.00473827 0.0320726 0.0201298 0.0133577 0.0136776 0.00764448 0.0120222 0.00686436 0.018092 0.0038889 0.0151851 0.0305062 0.0778007 0.147611 0.0197571 0.00769928 0.0193052 0.0392174 0.0165269 
  --------------------------------------------------------------
  Initialization seed trial #5 of 5; initialization seed = 493575245
  --------------------------------------------------------------
  Initialized k-means centers using random sampling: 22 centers
  Number of k-means iterations performed: 27
  BIC score: 80542.2
  Distortion: 61.3467
  Distortions/cluster: 2.5973 1.72967 2.27859 6.52424 1.56395 0.528314 0.490002 2.87911 1.52708 1.84504 2.25204 2.54437 3.22878 12.2142 0.283371 3.79212 1.44876 5.83447 0.752935 3.05295 2.87912 1.10027 
  Variance: 0.019389
  Variances/cluster: 0.123681 0.0194345 0.00816701 0.0322982 0.0284355 0.0069515 0.0038889 0.0306288 0.00553288 0.0097621 0.0186119 0.0170763 0.0235677 0.109055 0.00457049 0.0167054 0.0284071 0.0502972 0.00731005 0.00776833 0.016936 0.00948513 
  The best initialization seed trial was #3

--------------------------------------------------------------
Run number 5 of at most 7, k = 18
--------------------------------------------------------------
  --------------------------------------------------------------
  Initialization seed trial #1 of 5; initialization seed = 493575246
  --------------------------------------------------------------
  Initialized k-means centers using random sampling: 18 centers
  Number of k-means iterations performed: 31
  BIC score: 82309.9
  Distortion: 59.201
  Distortions/cluster: 7.39037 2.27282 2.14972 1.96908 3.95777 1.82377 2.32842 3.79455 1.26507 1.65623 2.5973 5.05543 3.75304 1.17337 5.43812 4.88669 4.14567 3.54365 
  Variance: 0.0186872
  Variances/cluster: 0.0187098 0.0129137 0.0113143 0.0221245 0.0194008 0.0153258 0.0206054 0.0195596 0.00910124 0.0188208 0.123681 0.0315964 0.0183075 0.00777064 0.0278878 0.13962 0.0175664 0.00773723 
  --------------------------------------------------------------
  Initialization seed trial #2 of 5; initialization seed = 493575247
  --------------------------------------------------------------
  Initialized k-means centers using random sampling: 18 centers
  Number of k-means iterations performed: 39
  BIC score: 77367.5
  Distortion: 72.685
  Distortions/cluster: 3.93084 1.53738 11.4922 1.72967 2.00092 0.449794 1.08404 5.71938 2.23343 5.02838 2.27282 3.10314 7.16854 7.39037 10.9871 0.918177 1.008 4.63092 
  Variance: 0.0229435
  Variances/cluster: 0.02196 0.00844713 0.103533 0.0194345 0.0169569 0.00362737 0.0094264 0.0256474 0.00812157 0.0314274 0.0129137 0.00781647 0.0325843 0.0187098 0.14086 0.0195357 0.0305454 0.0188249 
  --------------------------------------------------------------
  Initialization seed trial #3 of 5; initialization seed = 493575248
  --------------------------------------------------------------
  Initialized k-means centers using random sampling: 18 centers
  Number of k-means iterations performed: 53
  BIC score: 77643.6
  Distortion: 72.0915
  Distortions/cluster: 11.4922 5.05549 8.10586 1.06286 0.804096 2.6521 4.87148 7.19622 5.70926 1.44876 0.490002 1.6013 0.764829 1.72967 1.08501 3.21962 3.49038 11.3124 
  Variance: 0.0227562
  Variances/cluster: 0.103533 0.019748 0.0304732 0.0393651 0.0171084 0.0110504 0.0209076 0.0327101 0.0330015 0.0284071 0.0038889 0.00531993 0.00822397 0.0194345 0.0087501 0.00794968 0.0108061 0.136294 
  --------------------------------------------------------------
  Initialization seed trial #4 of 5; initialization seed = 493575249
  --------------------------------------------------------------
  Initialized k-means centers using random sampling: 18 centers
  Number of k-means iterations performed: 39
  BIC score: 77267.9
  Distortion: 73.7634
  Distortions/cluster: 1.7244 3.6621 6.82187 1.76015 3.54538 2.96383 5.97144 3.91566 10.9041 1.20113 8.53971 0.683799 1.81066 0.984346 3.46962 0.927536 1.10027 13.7774 
  Variance: 0.0232839
  Variances/cluster: 0.0148655 0.00803092 0.213183 0.00926394 0.0216181 0.0178544 0.0243732 0.0249405 0.0991282 0.00769957 0.0344343 0.00521984 0.0201185 0.00994289 0.0365224 0.0371015 0.00948513 0.0240863 
  --------------------------------------------------------------
  Initialization seed trial #5 of 5; initialization seed = 493575250
  --------------------------------------------------------------
  Initialized k-means centers using random sampling: 18 centers
  Number of k-means iterations performed: 32
  BIC score: 79359.7
  Distortion: 67.2997
  Distortions/cluster: 3.54254 0.471578 6.08548 1.94323 5.635 1.47274 0.490002 1.90817 4.77922 1.72967 6.52424 4.01636 6.91181 3.24846 1.64986 11.4922 2.55579 2.84333 
  Variance: 0.0212436
  Variances/cluster: 0.0111401 0.0294737 0.0249405 0.0123773 0.032385 0.0283219 0.0038889 0.017347 0.0201655 0.0194345 0.0322982 0.0172376 0.222962 0.00786551 0.0279637 0.103533 0.00707975 0.0120993 
  The best initialization seed trial was #1

--------------------------------------------------------------
Run number 6 of at most 7, k = 20
--------------------------------------------------------------
  --------------------------------------------------------------
  Initialization seed trial #1 of 5; initialization seed = 493575251
  --------------------------------------------------------------
  Initialized k-means centers using random sampling: 20 centers
  Number of k-means iterations performed: 27
  BIC score: 84829.1
  Distortion: 52.6633
  Distortions/cluster: 2.55579 3.57465 1.94323 3.78545 1.72967 2.5973 1.96908 2.75911 4.23329 2.13851 2.1198 0.687902 1.47274 2.57596 4.02727 4.88669 3.0471 2.36262 1.48185 2.71527 
  Variance: 0.016634
  Variances/cluster: 0.00707975 0.00768742 0.0123773 0.0167498 0.0194345 0.123681 0.0221245 0.0119961 0.0148017 0.019441 0.0160591 0.0382168 0.0283219 0.0182692 0.0196452 0.13962 0.030471 0.0162939 0.0103626 0.016865 
  --------------------------------------------------------------
  Initialization seed trial #2 of 5; initialization seed = 493575252
  --------------------------------------------------------------
  Initialized k-means centers using random sampling: 20 centers
  Number of k-means iterations performed: 24
  BIC score: 79108.2
  Distortion: 66.8994
  Distortions/cluster: 2.4326 0.663715 3.70544 0.774753 5.48451 0.256972 4.13751 3.14292 3.52293 1.07217 0.910965 6.85044 11.4922 0.860886 3.96505 7.89155 2.0322 4.09744 1.79447 1.81066 
  Variance: 0.0211306
  Variances/cluster: 0.0107637 0.00762891 0.00796868 0.0276697 0.0222948 0.0102789 0.0253835 0.0184878 0.0363188 0.0369712 0.00792144 0.195727 0.103533 0.00637694 0.0236015 0.0332977 0.0150534 0.0140806 0.00573314 0.0201185 
  --------------------------------------------------------------
  Initialization seed trial #3 of 5; initialization seed = 493575253
  --------------------------------------------------------------
  Initialized k-means centers using random sampling: 20 centers
  Number of k-means iterations performed: 22
  BIC score: 83853.6
  Distortion: 54.942
  Distortions/cluster: 1.93317 1.8826 4.08888 2.26993 2.39426 3.57764 0.0123937 3.5667 5.29119 1.47274 3.46819 2.5973 1.72967 1.94323 1.96908 2.49498 3.18186 4.88669 1.48185 4.69965 
  Variance: 0.0173538
  Variances/cluster: 0.0247842 0.011206 0.0148148 0.0204498 0.0176049 0.0149068 0.0123937 0.018385 0.0320678 0.0283219 0.0157645 0.123681 0.0194345 0.0123773 0.0221245 0.00693049 0.00708654 0.13962 0.0103626 0.0258223 
  --------------------------------------------------------------
  Initialization seed trial #4 of 5; initialization seed = 493575254
  --------------------------------------------------------------
  Initialized k-means centers using random sampling: 20 centers
  Number of k-means iterations performed: 51
  BIC score: 84052.2
  Distortion: 53.9446
  Distortions/cluster: 2.55579 1.49384 5.31401 1.96908 1.72967 1.47645 1.31044 0.490002 4.06101 1.54487 6.94902 1.94323 2.74697 2.10721 3.69162 3.03703 1.47274 2.59944 3.27821 4.17398 
  Variance: 0.0170387
  Variances/cluster: 0.00707975 0.0271607 0.147611 0.0221245 0.0194345 0.00689928 0.0056729 0.0038889 0.0172809 0.102991 0.0269342 0.0123773 0.0254349 0.0110906 0.0195324 0.0180775 0.0283219 0.00973574 0.0306375 0.0190593 
  --------------------------------------------------------------
  Initialization seed trial #5 of 5; initialization seed = 493575255
  --------------------------------------------------------------
  Initialized k-means centers using random sampling: 20 centers
  Number of k-means iterations performed: 74
  BIC score: 82728.5
  Distortion: 56.8458
  Distortions/cluster: 0.887463 4.12766 1.65623 2.5973 3.27821 1.62964 1.67247 0.928742 2.1809 3.54587 1.29599 2.61622 2.20003 1.48185 4.88669 2.96478 7.5595 1.96908 7.04601 2.32119 
  Variance: 0.0179551
  Variances/cluster: 0.00739552 0.0189342 0.0188208 0.123681 0.0306375 0.024323 0.011076 0.00494012 0.0196477 0.0162655 0.00476467 0.0137696 0.0114585 0.0103626 0.13962 0.0177532 0.0286345 0.0221245 0.0184935 0.0161194 
  The best initialization seed trial was #1

--------------------------------------------------------------
Run number 7 of at most 7, k = 19
--------------------------------------------------------------
  --------------------------------------------------------------
  Initialization seed trial #1 of 5; initialization seed = 493575256
  --------------------------------------------------------------
  Initialized k-means centers using random sampling: 19 centers
  Number of k-means iterations performed: 20
  BIC score: 82879.2
  Distortion: 57.6404
  Distortions/cluster: 5.08492 0.576181 4.01636 4.55853 2.5973 6.78785 2.29926 3.69024 1.34601 0.58669 4.88669 1.44876 4.02727 1.96908 4.89244 5.14999 1.72967 0.511265 1.48185 
  Variance: 0.0182003
  Variances/cluster: 0.0210121 0.00720226 0.0172376 0.0241192 0.123681 0.0229319 0.0205292 0.00775261 0.00479006 0.00733362 0.13962 0.0284071 0.0196452 0.0221245 0.0159363 0.0317901 0.0194345 0.00672717 0.0103626 
  --------------------------------------------------------------
  Initialization seed trial #2 of 5; initialization seed = 493575257
  --------------------------------------------------------------
  Initialized k-means centers using random sampling: 19 centers
  Number of k-means iterations performed: 28
  BIC score: 83382
  Distortion: 56.159
  Distortions/cluster: 3.75237 3.01437 4.13481 3.69763 2.95092 1.96908 1.42289 2.89072 2.27282 4.88669 2.77077 2.81765 7.39037 2.15301 2.12159 0.490002 3.0964 1.72967 2.5973 
  Variance: 0.0177326
  Variances/cluster: 0.0166034 0.00755481 0.0198789 0.0182149 0.0237977 0.0221245 0.0263498 0.00983239 0.0129137 0.13962 0.0174262 0.0168722 0.0187098 0.0195728 0.0111663 0.0038889 0.0303569 0.0194345 0.123681 
  --------------------------------------------------------------
  Initialization seed trial #3 of 5; initialization seed = 493575258
  --------------------------------------------------------------
  Initialized k-means centers using random sampling: 19 centers
  Number of k-means iterations performed: 26
  BIC score: 82623.2
  Distortion: 57.8589
  Distortions/cluster: 1.53472 3.59559 2.29926 1.93317 1.22686 2.5973 3.16239 5.09944 1.96908 2.32685 3.85785 4.88669 3.79295 2.64164 1.7838 1.25626 1.65623 5.21857 7.02026 
  Variance: 0.0182693
  Variances/cluster: 0.0151952 0.0161963 0.0205292 0.0247842 0.00889026 0.123681 0.00722008 0.0316736 0.0221245 0.0119326 0.0185473 0.13962 0.0195513 0.0137585 0.0107458 0.007901 0.0188208 0.0273224 0.0185231 
  --------------------------------------------------------------
  Initialization seed trial #4 of 5; initialization seed = 493575259
  --------------------------------------------------------------
  Initialized k-means centers using random sampling: 19 centers
  Number of k-means iterations performed: 28
  BIC score: 77690.4
  Distortion: 71.1322
  Distortions/cluster: 0.784553 0.275876 0.553114 5.68366 7.29613 1.44876 1.72967 5.16075 0.200836 4.23329 2.47706 4.67626 11.1711 3.78075 11.4922 1.48185 3.67993 1.06529 3.94109 
  Variance: 0.0224604
  Variances/cluster: 0.00754378 0.00467587 0.00489481 0.0264356 0.0327181 0.0284071 0.0194345 0.0318565 0.00717271 0.0148017 0.0180808 0.0189322 0.137915 0.00799312 0.103533 0.0103626 0.0150201 0.00502497 0.0209632 
  --------------------------------------------------------------
  Initialization seed trial #5 of 5; initialization seed = 493575260
  --------------------------------------------------------------
  Initialized k-means centers using random sampling: 19 centers
  Number of k-means iterations performed: 48
  BIC score: 80995.2
  Distortion: 62.4502
  Distortions/cluster: 2.17157 2.36914 6.05042 1.72967 0.461848 1.65365 13.7774 0.81768 7.31243 5.31401 4.8881 0.490002 1.96908 2.4507 3.34512 1.3924 1.54487 1.7621 2.95 
  Variance: 0.019719
  Variances/cluster: 0.0162057 0.00771706 0.0325291 0.0194345 0.00721637 0.0112493 0.0240863 0.0054151 0.0270831 0.147611 0.0231664 0.0038889 0.0221245 0.0263516 0.013543 0.00672659 0.102991 0.0279699 0.0184375 
  The best initialization seed trial was #2

------------------------------------------------------------------
------------------------------------------------------------------
Post-processing runs
------------------------------------------------------------------
------------------------------------------------------------------
  For the BIC threshold, the best clustering was run 7 (k = 19)
  Post-processing run 7 (k = 19)
    Saving simpoints of all non-empty clusters to file '/home/cuihongwei/experiment/simpoint/401.bzip2/arm-401.bzip2-input6-190517-230332/simpoint_file'
    Saving weights of all non-empty clusters to file '/home/cuihongwei/experiment/simpoint/401.bzip2/arm-401.bzip2-input6-190517-230332/weight_file'
