
---------- Begin Simulation Statistics ----------
final_tick                               163910957956000                       # Number of ticks from beginning of simulation (restored from checkpoints and never reset)
host_inst_rate                                1392490                       # Simulator instruction rate (inst/s)
host_mem_usage                                8554232                       # Number of bytes of host memory used
host_op_rate                                  1432383                       # Simulator op (including micro ops) rate (op/s)
host_seconds                                228864.64                       # Real time elapsed on the host
host_tick_rate                              716191725                       # Simulator tick rate (ticks/s)
sim_freq                                 1000000000000                       # Frequency of simulated ticks
im_insts                                318691762852                       # Number of instructions simulated
im_ops                                  327821915466                       # Number of ops (including micro ops) simulated
sim_seconds                                163.910958                       # Number of seconds simulated
sim_ticks                                163910957956000                       # Number of ticks simulated
system.clk_domain.clock                          1000                       # Clock period in ticks
system.cpu.Branches                       50410505227                       # Number of branches fetched
system.cpu.committedInsts                318691762852                       # Number of instructions committed
system.cpu.committedOps                  327821915466                       # Number of ops (including micro ops) committed
system.cpu.dstage2_mmu.stage2_tlb.accesses            0                       # DTB accesses
system.cpu.dstage2_mmu.stage2_tlb.align_faults            0                       # Number of TLB faults due to alignment restrictions
system.cpu.dstage2_mmu.stage2_tlb.domain_faults            0                       # Number of TLB faults due to domain restrictions
system.cpu.dstage2_mmu.stage2_tlb.flush_entries            0                       # Number of entries that have been flushed from TLB
system.cpu.dstage2_mmu.stage2_tlb.flush_tlb            0                       # Number of times complete TLB was flushed
system.cpu.dstage2_mmu.stage2_tlb.flush_tlb_asid            0                       # Number of times TLB was flushed by ASID
system.cpu.dstage2_mmu.stage2_tlb.flush_tlb_mva            0                       # Number of times TLB was flushed by MVA
system.cpu.dstage2_mmu.stage2_tlb.flush_tlb_mva_asid            0                       # Number of times TLB was flushed by MVA & ASID
system.cpu.dstage2_mmu.stage2_tlb.hits              0                       # DTB hits
system.cpu.dstage2_mmu.stage2_tlb.inst_accesses            0                       # ITB inst accesses
system.cpu.dstage2_mmu.stage2_tlb.inst_hits            0                       # ITB inst hits
system.cpu.dstage2_mmu.stage2_tlb.inst_misses            0                       # ITB inst misses
system.cpu.dstage2_mmu.stage2_tlb.misses            0                       # DTB misses
system.cpu.dstage2_mmu.stage2_tlb.perms_faults            0                       # Number of TLB faults due to permissions restrictions
system.cpu.dstage2_mmu.stage2_tlb.prefetch_faults            0                       # Number of TLB faults due to prefetch
system.cpu.dstage2_mmu.stage2_tlb.pwrStateResidencyTicks::UNDEFINED 163910957956000                       # Cumulative time (in ticks) in various power states
system.cpu.dstage2_mmu.stage2_tlb.read_accesses            0                       # DTB read accesses
system.cpu.dstage2_mmu.stage2_tlb.read_hits            0                       # DTB read hits
system.cpu.dstage2_mmu.stage2_tlb.read_misses            0                       # DTB read misses
system.cpu.dstage2_mmu.stage2_tlb.walker.pwrStateResidencyTicks::UNDEFINED 163910957956000                       # Cumulative time (in ticks) in various power states
system.cpu.dstage2_mmu.stage2_tlb.walker.walkRequestOrigin_Requested::Data            0                       # Table walker requests started/completed, data/inst
system.cpu.dstage2_mmu.stage2_tlb.walker.walkRequestOrigin_Requested::Inst            0                       # Table walker requests started/completed, data/inst
system.cpu.dstage2_mmu.stage2_tlb.walker.walkRequestOrigin_Requested::total            0                       # Table walker requests started/completed, data/inst
system.cpu.dstage2_mmu.stage2_tlb.walker.walkRequestOrigin_Completed::Data            0                       # Table walker requests started/completed, data/inst
system.cpu.dstage2_mmu.stage2_tlb.walker.walkRequestOrigin_Completed::Inst            0                       # Table walker requests started/completed, data/inst
system.cpu.dstage2_mmu.stage2_tlb.walker.walkRequestOrigin_Completed::total            0                       # Table walker requests started/completed, data/inst
system.cpu.dstage2_mmu.stage2_tlb.walker.walkRequestOrigin::total            0                       # Table walker requests started/completed, data/inst
system.cpu.dstage2_mmu.stage2_tlb.walker.walks            0                       # Table walker walks requested
system.cpu.dstage2_mmu.stage2_tlb.write_accesses            0                       # DTB write accesses
system.cpu.dstage2_mmu.stage2_tlb.write_hits            0                       # DTB write hits
system.cpu.dstage2_mmu.stage2_tlb.write_misses            0                       # DTB write misses
system.cpu.dtb.accesses                             0                       # DTB accesses
system.cpu.dtb.align_faults                         0                       # Number of TLB faults due to alignment restrictions
system.cpu.dtb.domain_faults                        0                       # Number of TLB faults due to domain restrictions
system.cpu.dtb.flush_entries                        0                       # Number of entries that have been flushed from TLB
system.cpu.dtb.flush_tlb                            0                       # Number of times complete TLB was flushed
system.cpu.dtb.flush_tlb_asid                       0                       # Number of times TLB was flushed by ASID
system.cpu.dtb.flush_tlb_mva                        0                       # Number of times TLB was flushed by MVA
system.cpu.dtb.flush_tlb_mva_asid                   0                       # Number of times TLB was flushed by MVA & ASID
system.cpu.dtb.hits                                 0                       # DTB hits
system.cpu.dtb.inst_accesses                        0                       # ITB inst accesses
system.cpu.dtb.inst_hits                            0                       # ITB inst hits
system.cpu.dtb.inst_misses                          0                       # ITB inst misses
system.cpu.dtb.misses                               0                       # DTB misses
system.cpu.dtb.perms_faults                         0                       # Number of TLB faults due to permissions restrictions
system.cpu.dtb.prefetch_faults                      0                       # Number of TLB faults due to prefetch
system.cpu.dtb.pwrStateResidencyTicks::UNDEFINED 163910957956000                       # Cumulative time (in ticks) in various power states
system.cpu.dtb.read_accesses                        0                       # DTB read accesses
system.cpu.dtb.read_hits                            0                       # DTB read hits
system.cpu.dtb.read_misses                          0                       # DTB read misses
system.cpu.dtb.walker.pwrStateResidencyTicks::UNDEFINED 163910957956000                       # Cumulative time (in ticks) in various power states
system.cpu.dtb.walker.walkRequestOrigin_Requested::Data            0                       # Table walker requests started/completed, data/inst
system.cpu.dtb.walker.walkRequestOrigin_Requested::Inst            0                       # Table walker requests started/completed, data/inst
system.cpu.dtb.walker.walkRequestOrigin_Requested::total            0                       # Table walker requests started/completed, data/inst
system.cpu.dtb.walker.walkRequestOrigin_Completed::Data            0                       # Table walker requests started/completed, data/inst
system.cpu.dtb.walker.walkRequestOrigin_Completed::Inst            0                       # Table walker requests started/completed, data/inst
system.cpu.dtb.walker.walkRequestOrigin_Completed::total            0                       # Table walker requests started/completed, data/inst
system.cpu.dtb.walker.walkRequestOrigin::total            0                       # Table walker requests started/completed, data/inst
system.cpu.dtb.walker.walks                         0                       # Table walker walks requested
system.cpu.dtb.write_accesses                       0                       # DTB write accesses
system.cpu.dtb.write_hits                           0                       # DTB write hits
system.cpu.dtb.write_misses                         0                       # DTB write misses
system.cpu.idle_fraction                     0.000000                       # Percentage of idle cycles
system.cpu.istage2_mmu.stage2_tlb.accesses            0                       # DTB accesses
system.cpu.istage2_mmu.stage2_tlb.align_faults            0                       # Number of TLB faults due to alignment restrictions
system.cpu.istage2_mmu.stage2_tlb.domain_faults            0                       # Number of TLB faults due to domain restrictions
system.cpu.istage2_mmu.stage2_tlb.flush_entries            0                       # Number of entries that have been flushed from TLB
system.cpu.istage2_mmu.stage2_tlb.flush_tlb            0                       # Number of times complete TLB was flushed
system.cpu.istage2_mmu.stage2_tlb.flush_tlb_asid            0                       # Number of times TLB was flushed by ASID
system.cpu.istage2_mmu.stage2_tlb.flush_tlb_mva            0                       # Number of times TLB was flushed by MVA
system.cpu.istage2_mmu.stage2_tlb.flush_tlb_mva_asid            0                       # Number of times TLB was flushed by MVA & ASID
system.cpu.istage2_mmu.stage2_tlb.hits              0                       # DTB hits
system.cpu.istage2_mmu.stage2_tlb.inst_accesses            0                       # ITB inst accesses
system.cpu.istage2_mmu.stage2_tlb.inst_hits            0                       # ITB inst hits
system.cpu.istage2_mmu.stage2_tlb.inst_misses            0                       # ITB inst misses
system.cpu.istage2_mmu.stage2_tlb.misses            0                       # DTB misses
system.cpu.istage2_mmu.stage2_tlb.perms_faults            0                       # Number of TLB faults due to permissions restrictions
system.cpu.istage2_mmu.stage2_tlb.prefetch_faults            0                       # Number of TLB faults due to prefetch
system.cpu.istage2_mmu.stage2_tlb.pwrStateResidencyTicks::UNDEFINED 163910957956000                       # Cumulative time (in ticks) in various power states
system.cpu.istage2_mmu.stage2_tlb.read_accesses            0                       # DTB read accesses
system.cpu.istage2_mmu.stage2_tlb.read_hits            0                       # DTB read hits
system.cpu.istage2_mmu.stage2_tlb.read_misses            0                       # DTB read misses
system.cpu.istage2_mmu.stage2_tlb.walker.pwrStateResidencyTicks::UNDEFINED 163910957956000                       # Cumulative time (in ticks) in various power states
system.cpu.istage2_mmu.stage2_tlb.walker.walkRequestOrigin_Requested::Data            0                       # Table walker requests started/completed, data/inst
system.cpu.istage2_mmu.stage2_tlb.walker.walkRequestOrigin_Requested::Inst            0                       # Table walker requests started/completed, data/inst
system.cpu.istage2_mmu.stage2_tlb.walker.walkRequestOrigin_Requested::total            0                       # Table walker requests started/completed, data/inst
system.cpu.istage2_mmu.stage2_tlb.walker.walkRequestOrigin_Completed::Data            0                       # Table walker requests started/completed, data/inst
system.cpu.istage2_mmu.stage2_tlb.walker.walkRequestOrigin_Completed::Inst            0                       # Table walker requests started/completed, data/inst
system.cpu.istage2_mmu.stage2_tlb.walker.walkRequestOrigin_Completed::total            0                       # Table walker requests started/completed, data/inst
system.cpu.istage2_mmu.stage2_tlb.walker.walkRequestOrigin::total            0                       # Table walker requests started/completed, data/inst
system.cpu.istage2_mmu.stage2_tlb.walker.walks            0                       # Table walker walks requested
system.cpu.istage2_mmu.stage2_tlb.write_accesses            0                       # DTB write accesses
system.cpu.istage2_mmu.stage2_tlb.write_hits            0                       # DTB write hits
system.cpu.istage2_mmu.stage2_tlb.write_misses            0                       # DTB write misses
system.cpu.itb.accesses                             0                       # DTB accesses
system.cpu.itb.align_faults                         0                       # Number of TLB faults due to alignment restrictions
system.cpu.itb.domain_faults                        0                       # Number of TLB faults due to domain restrictions
system.cpu.itb.flush_entries                        0                       # Number of entries that have been flushed from TLB
system.cpu.itb.flush_tlb                            0                       # Number of times complete TLB was flushed
system.cpu.itb.flush_tlb_asid                       0                       # Number of times TLB was flushed by ASID
system.cpu.itb.flush_tlb_mva                        0                       # Number of times TLB was flushed by MVA
system.cpu.itb.flush_tlb_mva_asid                   0                       # Number of times TLB was flushed by MVA & ASID
system.cpu.itb.hits                                 0                       # DTB hits
system.cpu.itb.inst_accesses                        0                       # ITB inst accesses
system.cpu.itb.inst_hits                            0                       # ITB inst hits
system.cpu.itb.inst_misses                          0                       # ITB inst misses
system.cpu.itb.misses                               0                       # DTB misses
system.cpu.itb.perms_faults                         0                       # Number of TLB faults due to permissions restrictions
system.cpu.itb.prefetch_faults                      0                       # Number of TLB faults due to prefetch
system.cpu.itb.pwrStateResidencyTicks::UNDEFINED 163910957956000                       # Cumulative time (in ticks) in various power states
system.cpu.itb.read_accesses                        0                       # DTB read accesses
system.cpu.itb.read_hits                            0                       # DTB read hits
system.cpu.itb.read_misses                          0                       # DTB read misses
system.cpu.itb.walker.pwrStateResidencyTicks::UNDEFINED 163910957956000                       # Cumulative time (in ticks) in various power states
system.cpu.itb.walker.walkRequestOrigin_Requested::Data            0                       # Table walker requests started/completed, data/inst
system.cpu.itb.walker.walkRequestOrigin_Requested::Inst            0                       # Table walker requests started/completed, data/inst
system.cpu.itb.walker.walkRequestOrigin_Requested::total            0                       # Table walker requests started/completed, data/inst
system.cpu.itb.walker.walkRequestOrigin_Completed::Data            0                       # Table walker requests started/completed, data/inst
system.cpu.itb.walker.walkRequestOrigin_Completed::Inst            0                       # Table walker requests started/completed, data/inst
system.cpu.itb.walker.walkRequestOrigin_Completed::total            0                       # Table walker requests started/completed, data/inst
system.cpu.itb.walker.walkRequestOrigin::total            0                       # Table walker requests started/completed, data/inst
system.cpu.itb.walker.walks                         0                       # Table walker walks requested
system.cpu.itb.write_accesses                       0                       # DTB write accesses
system.cpu.itb.write_hits                           0                       # DTB write hits
system.cpu.itb.write_misses                         0                       # DTB write misses
system.cpu.not_idle_fraction                 1.000000                       # Percentage of non-idle cycles
system.cpu.numCycles                     327821915913                       # number of cpu cycles simulated
system.cpu.numWorkItemsCompleted                    0                       # number of work items this cpu completed
system.cpu.numWorkItemsStarted                      0                       # number of work items this cpu started
system.cpu.num_busy_cycles               327821915912.997986                       # Number of busy cycles
system.cpu.num_cc_register_reads         121313535642                       # number of times the CC registers were read
system.cpu.num_cc_register_writes        113261837622                       # number of times the CC registers were written
system.cpu.num_conditional_control_insts  44250232574                       # number of instructions that are conditional controls
system.cpu.num_fp_alu_accesses                      0                       # Number of float alu accesses
system.cpu.num_fp_insts                             0                       # number of float instructions
system.cpu.num_fp_register_reads                    0                       # number of times the floating registers were read
system.cpu.num_fp_register_writes                   0                       # number of times the floating registers were written
system.cpu.num_func_calls                  1210439754                       # number of times a function call or return occured
system.cpu.num_idle_cycles                   0.002002                       # Number of idle cycles
system.cpu.num_int_alu_accesses          285017646431                       # Number of integer alu accesses
system.cpu.num_int_insts                 285017646431                       # number of integer instructions
system.cpu.num_int_register_reads        445001832001                       # number of times the integer registers were read
system.cpu.num_int_register_writes       248339804019                       # number of times the integer registers were written
system.cpu.num_load_insts                 79817881614                       # Number of load instructions
system.cpu.num_mem_refs                  111854131709                       # number of memory refs
system.cpu.num_store_insts                32036250095                       # Number of store instructions
system.cpu.num_vec_alu_accesses             381124155                       # Number of vector alu accesses
system.cpu.num_vec_insts                    381124155                       # number of vector instructions
system.cpu.num_vec_register_reads           259678106                       # number of times the vector registers were read
system.cpu.num_vec_register_writes          131130165                       # number of times the vector registers were written
system.cpu.op_class::No_OpClass                    35      0.00%      0.00% # Class of executed instruction
system.cpu.op_class::IntAlu              215935982185     65.87%     65.87% # Class of executed instruction
system.cpu.op_class::IntMult                 25870043      0.01%     65.88% # Class of executed instruction
system.cpu.op_class::IntDiv                      5212      0.00%     65.88% # Class of executed instruction
system.cpu.op_class::FloatAdd                       0      0.00%     65.88% # Class of executed instruction
system.cpu.op_class::FloatCmp                       0      0.00%     65.88% # Class of executed instruction
system.cpu.op_class::FloatCvt                       0      0.00%     65.88% # Class of executed instruction
system.cpu.op_class::FloatMult                      0      0.00%     65.88% # Class of executed instruction
system.cpu.op_class::FloatMultAcc                   0      0.00%     65.88% # Class of executed instruction
system.cpu.op_class::FloatDiv                       0      0.00%     65.88% # Class of executed instruction
system.cpu.op_class::FloatMisc                      0      0.00%     65.88% # Class of executed instruction
system.cpu.op_class::FloatSqrt                      0      0.00%     65.88% # Class of executed instruction
system.cpu.op_class::SimdAdd                   545743      0.00%     65.88% # Class of executed instruction
system.cpu.op_class::SimdAddAcc                     0      0.00%     65.88% # Class of executed instruction
system.cpu.op_class::SimdAlu                  1000295      0.00%     65.88% # Class of executed instruction
system.cpu.op_class::SimdCmp                  1816138      0.00%     65.88% # Class of executed instruction
system.cpu.op_class::SimdCvt                        0      0.00%     65.88% # Class of executed instruction
system.cpu.op_class::SimdMisc                 1274168      0.00%     65.88% # Class of executed instruction
system.cpu.op_class::SimdMult                       0      0.00%     65.88% # Class of executed instruction
system.cpu.op_class::SimdMultAcc                    0      0.00%     65.88% # Class of executed instruction
system.cpu.op_class::SimdShift                1290385      0.00%     65.88% # Class of executed instruction
system.cpu.op_class::SimdShiftAcc                   0      0.00%     65.88% # Class of executed instruction
system.cpu.op_class::SimdSqrt                       0      0.00%     65.88% # Class of executed instruction
system.cpu.op_class::SimdFloatAdd                   0      0.00%     65.88% # Class of executed instruction
system.cpu.op_class::SimdFloatAlu                   0      0.00%     65.88% # Class of executed instruction
system.cpu.op_class::SimdFloatCmp                   0      0.00%     65.88% # Class of executed instruction
system.cpu.op_class::SimdFloatCvt                   0      0.00%     65.88% # Class of executed instruction
system.cpu.op_class::SimdFloatDiv                   0      0.00%     65.88% # Class of executed instruction
system.cpu.op_class::SimdFloatMisc                  0      0.00%     65.88% # Class of executed instruction
system.cpu.op_class::SimdFloatMult                  0      0.00%     65.88% # Class of executed instruction
system.cpu.op_class::SimdFloatMultAcc               0      0.00%     65.88% # Class of executed instruction
system.cpu.op_class::SimdFloatSqrt                  0      0.00%     65.88% # Class of executed instruction
system.cpu.op_class::SimdAes                        0      0.00%     65.88% # Class of executed instruction
system.cpu.op_class::SimdAesMix                     0      0.00%     65.88% # Class of executed instruction
system.cpu.op_class::SimdSha1Hash                   0      0.00%     65.88% # Class of executed instruction
system.cpu.op_class::SimdSha1Hash2                  0      0.00%     65.88% # Class of executed instruction
system.cpu.op_class::SimdSha256Hash                 0      0.00%     65.88% # Class of executed instruction
system.cpu.op_class::SimdSha256Hash2                0      0.00%     65.88% # Class of executed instruction
system.cpu.op_class::SimdShaSigma2                  0      0.00%     65.88% # Class of executed instruction
system.cpu.op_class::SimdShaSigma3                  0      0.00%     65.88% # Class of executed instruction
system.cpu.op_class::MemRead              79817881614     24.35%     90.23% # Class of executed instruction
system.cpu.op_class::MemWrite             32036250095      9.77%    100.00% # Class of executed instruction
system.cpu.op_class::FloatMemRead                   0      0.00%    100.00% # Class of executed instruction
system.cpu.op_class::FloatMemWrite                  0      0.00%    100.00% # Class of executed instruction
system.cpu.op_class::IprAccess                      0      0.00%    100.00% # Class of executed instruction
system.cpu.op_class::InstPrefetch                   0      0.00%    100.00% # Class of executed instruction
system.cpu.op_class::total               327821915913                       # Class of executed instruction
system.cpu.pwrStateResidencyTicks::ON    163910957956000                       # Cumulative time (in ticks) in various power states
system.cpu.workload.numSyscalls                   444                       # Number of system calls
system.cpu_clk_domain.clock                       500                       # Clock period in ticks
system.cpu_voltage_domain.voltage                   1                       # Voltage in Volts
system.mem_ctrls.bw_inst_read::.cpu.inst   7777192380                       # Instruction read bandwidth from this memory (bytes/s)
system.mem_ctrls.bw_inst_read::total       7777192380                       # Instruction read bandwidth from this memory (bytes/s)
system.mem_ctrls.bw_read::.cpu.inst        7777192380                       # Total read bandwidth from this memory (bytes/s)
system.mem_ctrls.bw_read::.cpu.data        1640366820                       # Total read bandwidth from this memory (bytes/s)
system.mem_ctrls.bw_read::total            9417559200                       # Total read bandwidth from this memory (bytes/s)
system.mem_ctrls.bw_total::.cpu.inst       7777192380                       # Total bandwidth to/from this memory (bytes/s)
system.mem_ctrls.bw_total::.cpu.data       2418027742                       # Total bandwidth to/from this memory (bytes/s)
system.mem_ctrls.bw_total::total          10195220122                       # Total bandwidth to/from this memory (bytes/s)
system.mem_ctrls.bw_write::.cpu.data        777660922                       # Write bandwidth from this memory (bytes/s)
system.mem_ctrls.bw_write::total            777660922                       # Write bandwidth from this memory (bytes/s)
system.mem_ctrls.bytes_inst_read::.cpu.inst 1274767053196                       # Number of instructions bytes read from this memory
system.mem_ctrls.bytes_inst_read::total  1274767053196                       # Number of instructions bytes read from this memory
system.mem_ctrls.bytes_read::.cpu.inst   1274767053196                       # Number of bytes read from this memory
system.mem_ctrls.bytes_read::.cpu.data   268874096888                       # Number of bytes read from this memory
system.mem_ctrls.bytes_read::total       1543641150084                       # Number of bytes read from this memory
system.mem_ctrls.bytes_written::.cpu.data 127467146642                       # Number of bytes written to this memory
system.mem_ctrls.bytes_written::total    127467146642                       # Number of bytes written to this memory
system.mem_ctrls.num_reads::.cpu.inst    318691763299                       # Number of read requests responded to by this memory
system.mem_ctrls.num_reads::.cpu.data     80507577576                       # Number of read requests responded to by this memory
system.mem_ctrls.num_reads::total        399199340875                       # Number of read requests responded to by this memory
system.mem_ctrls.num_writes::.cpu.data    32072324464                       # Number of write requests responded to by this memory
system.mem_ctrls.num_writes::total        32072324464                       # Number of write requests responded to by this memory
system.mem_ctrls.pwrStateResidencyTicks::UNDEFINED 163910957956000                       # Cumulative time (in ticks) in various power states
system.membus.pwrStateResidencyTicks::UNDEFINED 163910957956000                       # Cumulative time (in ticks) in various power states
system.membus.snoopTraffic                          0                       # Total snoop traffic (bytes)
system.membus.snoop_fanout::samples                 0                       # Request fanout histogram
system.membus.snoop_fanout::mean                  nan                       # Request fanout histogram
system.membus.snoop_fanout::stdev                 nan                       # Request fanout histogram
system.membus.snoop_fanout::underflows              0                       # Request fanout histogram
system.membus.snoop_fanout::0                       0                       # Request fanout histogram
system.membus.snoop_fanout::1                       0                       # Request fanout histogram
system.membus.snoop_fanout::overflows               0                       # Request fanout histogram
system.membus.snoop_fanout::min_value               0                       # Request fanout histogram
system.membus.snoop_fanout::max_value               0                       # Request fanout histogram
system.membus.snoop_fanout::total                   0                       # Request fanout histogram
system.membus.snoop_filter.hit_multi_requests            0                       # Number of requests hitting in the snoop filter with multiple (>1) holders of the requested data.
system.membus.snoop_filter.hit_multi_snoops            0                       # Number of snoops hitting in the snoop filter with multiple (>1) holders of the requested data.
system.membus.snoop_filter.hit_single_requests            0                       # Number of requests hitting in the snoop filter with a single holder of the requested data.
system.membus.snoop_filter.hit_single_snoops            0                       # Number of snoops hitting in the snoop filter with a single holder of the requested data.
system.membus.snoop_filter.tot_requests             0                       # Total number of requests made to the snoop filter.
system.membus.snoop_filter.tot_snoops               0                       # Total number of snoops made to the snoop filter.
system.membus.snoops                                0                       # Total snoops (count)
system.pwrStateResidencyTicks::UNDEFINED 163910957956000                       # Cumulative time (in ticks) in various power states
system.voltage_domain.voltage                       1                       # Voltage in Volts

---------- End Simulation Statistics   ----------
