
---------- Begin Simulation Statistics ----------
final_tick                               501644452083000                       # Number of ticks from beginning of simulation (restored from checkpoints and never reset)
host_inst_rate                                 641087                       # Simulator instruction rate (inst/s)
host_mem_usage                                8579328                       # Number of bytes of host memory used
host_op_rate                                   714662                       # Simulator op (including micro ops) rate (op/s)
host_seconds                               1403864.77                       # Real time elapsed on the host
host_tick_rate                              357331037                       # Simulator tick rate (ticks/s)
sim_freq                                 1000000000000                       # Frequency of simulated ticks
sim_insts                                900000000001                       # Number of instructions simulated
sim_ops                                  1003288896498                       # Number of ops (including micro ops) simulated
sim_seconds                                501.644452                       # Number of seconds simulated
sim_ticks                                501644452083000                       # Number of ticks simulated
system.clk_domain.clock                          1000                       # Clock period in ticks
system.cpu.Branches                        2514924470                       # Number of branches fetched
system.cpu.committedInsts                900000000001                       # Number of instructions committed
system.cpu.committedOps                  1003288896498                       # Number of ops (including micro ops) committed
system.cpu.dstage2_mmu.stage2_tlb.accesses            0                       # DTB accesses
system.cpu.dstage2_mmu.stage2_tlb.align_faults            0                       # Number of TLB faults due to alignment restrictions
system.cpu.dstage2_mmu.stage2_tlb.domain_faults            0                       # Number of TLB faults due to domain restrictions
system.cpu.dstage2_mmu.stage2_tlb.flush_entries            0                       # Number of entries that have been flushed from TLB
system.cpu.dstage2_mmu.stage2_tlb.flush_tlb            0                       # Number of times complete TLB was flushed
system.cpu.dstage2_mmu.stage2_tlb.flush_tlb_asid            0                       # Number of times TLB was flushed by ASID
system.cpu.dstage2_mmu.stage2_tlb.flush_tlb_mva            0                       # Number of times TLB was flushed by MVA
system.cpu.dstage2_mmu.stage2_tlb.flush_tlb_mva_asid            0                       # Number of times TLB was flushed by MVA & ASID
system.cpu.dstage2_mmu.stage2_tlb.hits              0                       # DTB hits
system.cpu.dstage2_mmu.stage2_tlb.inst_accesses            0                       # ITB inst accesses
system.cpu.dstage2_mmu.stage2_tlb.inst_hits            0                       # ITB inst hits
system.cpu.dstage2_mmu.stage2_tlb.inst_misses            0                       # ITB inst misses
system.cpu.dstage2_mmu.stage2_tlb.misses            0                       # DTB misses
system.cpu.dstage2_mmu.stage2_tlb.perms_faults            0                       # Number of TLB faults due to permissions restrictions
system.cpu.dstage2_mmu.stage2_tlb.prefetch_faults            0                       # Number of TLB faults due to prefetch
system.cpu.dstage2_mmu.stage2_tlb.pwrStateResidencyTicks::UNDEFINED 501644452083000                       # Cumulative time (in ticks) in various power states
system.cpu.dstage2_mmu.stage2_tlb.read_accesses            0                       # DTB read accesses
system.cpu.dstage2_mmu.stage2_tlb.read_hits            0                       # DTB read hits
system.cpu.dstage2_mmu.stage2_tlb.read_misses            0                       # DTB read misses
system.cpu.dstage2_mmu.stage2_tlb.walker.pwrStateResidencyTicks::UNDEFINED 501644452083000                       # Cumulative time (in ticks) in various power states
system.cpu.dstage2_mmu.stage2_tlb.walker.walkRequestOrigin_Requested::Data            0                       # Table walker requests started/completed, data/inst
system.cpu.dstage2_mmu.stage2_tlb.walker.walkRequestOrigin_Requested::Inst            0                       # Table walker requests started/completed, data/inst
system.cpu.dstage2_mmu.stage2_tlb.walker.walkRequestOrigin_Requested::total            0                       # Table walker requests started/completed, data/inst
system.cpu.dstage2_mmu.stage2_tlb.walker.walkRequestOrigin_Completed::Data            0                       # Table walker requests started/completed, data/inst
system.cpu.dstage2_mmu.stage2_tlb.walker.walkRequestOrigin_Completed::Inst            0                       # Table walker requests started/completed, data/inst
system.cpu.dstage2_mmu.stage2_tlb.walker.walkRequestOrigin_Completed::total            0                       # Table walker requests started/completed, data/inst
system.cpu.dstage2_mmu.stage2_tlb.walker.walkRequestOrigin::total            0                       # Table walker requests started/completed, data/inst
system.cpu.dstage2_mmu.stage2_tlb.walker.walks            0                       # Table walker walks requested
system.cpu.dstage2_mmu.stage2_tlb.write_accesses            0                       # DTB write accesses
system.cpu.dstage2_mmu.stage2_tlb.write_hits            0                       # DTB write hits
system.cpu.dstage2_mmu.stage2_tlb.write_misses            0                       # DTB write misses
system.cpu.dtb.accesses                             0                       # DTB accesses
system.cpu.dtb.align_faults                         0                       # Number of TLB faults due to alignment restrictions
system.cpu.dtb.domain_faults                        0                       # Number of TLB faults due to domain restrictions
system.cpu.dtb.flush_entries                        0                       # Number of entries that have been flushed from TLB
system.cpu.dtb.flush_tlb                            0                       # Number of times complete TLB was flushed
system.cpu.dtb.flush_tlb_asid                       0                       # Number of times TLB was flushed by ASID
system.cpu.dtb.flush_tlb_mva                        0                       # Number of times TLB was flushed by MVA
system.cpu.dtb.flush_tlb_mva_asid                   0                       # Number of times TLB was flushed by MVA & ASID
system.cpu.dtb.hits                                 0                       # DTB hits
system.cpu.dtb.inst_accesses                        0                       # ITB inst accesses
system.cpu.dtb.inst_hits                            0                       # ITB inst hits
system.cpu.dtb.inst_misses                          0                       # ITB inst misses
system.cpu.dtb.misses                               0                       # DTB misses
system.cpu.dtb.perms_faults                         0                       # Number of TLB faults due to permissions restrictions
system.cpu.dtb.prefetch_faults                      0                       # Number of TLB faults due to prefetch
system.cpu.dtb.pwrStateResidencyTicks::UNDEFINED 501644452083000                       # Cumulative time (in ticks) in various power states
system.cpu.dtb.read_accesses                        0                       # DTB read accesses
system.cpu.dtb.read_hits                            0                       # DTB read hits
system.cpu.dtb.read_misses                          0                       # DTB read misses
system.cpu.dtb.walker.pwrStateResidencyTicks::UNDEFINED 501644452083000                       # Cumulative time (in ticks) in various power states
system.cpu.dtb.walker.walkRequestOrigin_Requested::Data            0                       # Table walker requests started/completed, data/inst
system.cpu.dtb.walker.walkRequestOrigin_Requested::Inst            0                       # Table walker requests started/completed, data/inst
system.cpu.dtb.walker.walkRequestOrigin_Requested::total            0                       # Table walker requests started/completed, data/inst
system.cpu.dtb.walker.walkRequestOrigin_Completed::Data            0                       # Table walker requests started/completed, data/inst
system.cpu.dtb.walker.walkRequestOrigin_Completed::Inst            0                       # Table walker requests started/completed, data/inst
system.cpu.dtb.walker.walkRequestOrigin_Completed::total            0                       # Table walker requests started/completed, data/inst
system.cpu.dtb.walker.walkRequestOrigin::total            0                       # Table walker requests started/completed, data/inst
system.cpu.dtb.walker.walks                         0                       # Table walker walks requested
system.cpu.dtb.write_accesses                       0                       # DTB write accesses
system.cpu.dtb.write_hits                           0                       # DTB write hits
system.cpu.dtb.write_misses                         0                       # DTB write misses
system.cpu.idle_fraction                            0                       # Percentage of idle cycles
system.cpu.istage2_mmu.stage2_tlb.accesses            0                       # DTB accesses
system.cpu.istage2_mmu.stage2_tlb.align_faults            0                       # Number of TLB faults due to alignment restrictions
system.cpu.istage2_mmu.stage2_tlb.domain_faults            0                       # Number of TLB faults due to domain restrictions
system.cpu.istage2_mmu.stage2_tlb.flush_entries            0                       # Number of entries that have been flushed from TLB
system.cpu.istage2_mmu.stage2_tlb.flush_tlb            0                       # Number of times complete TLB was flushed
system.cpu.istage2_mmu.stage2_tlb.flush_tlb_asid            0                       # Number of times TLB was flushed by ASID
system.cpu.istage2_mmu.stage2_tlb.flush_tlb_mva            0                       # Number of times TLB was flushed by MVA
system.cpu.istage2_mmu.stage2_tlb.flush_tlb_mva_asid            0                       # Number of times TLB was flushed by MVA & ASID
system.cpu.istage2_mmu.stage2_tlb.hits              0                       # DTB hits
system.cpu.istage2_mmu.stage2_tlb.inst_accesses            0                       # ITB inst accesses
system.cpu.istage2_mmu.stage2_tlb.inst_hits            0                       # ITB inst hits
system.cpu.istage2_mmu.stage2_tlb.inst_misses            0                       # ITB inst misses
system.cpu.istage2_mmu.stage2_tlb.misses            0                       # DTB misses
system.cpu.istage2_mmu.stage2_tlb.perms_faults            0                       # Number of TLB faults due to permissions restrictions
system.cpu.istage2_mmu.stage2_tlb.prefetch_faults            0                       # Number of TLB faults due to prefetch
system.cpu.istage2_mmu.stage2_tlb.pwrStateResidencyTicks::UNDEFINED 501644452083000                       # Cumulative time (in ticks) in various power states
system.cpu.istage2_mmu.stage2_tlb.read_accesses            0                       # DTB read accesses
system.cpu.istage2_mmu.stage2_tlb.read_hits            0                       # DTB read hits
system.cpu.istage2_mmu.stage2_tlb.read_misses            0                       # DTB read misses
system.cpu.istage2_mmu.stage2_tlb.walker.pwrStateResidencyTicks::UNDEFINED 501644452083000                       # Cumulative time (in ticks) in various power states
system.cpu.istage2_mmu.stage2_tlb.walker.walkRequestOrigin_Requested::Data            0                       # Table walker requests started/completed, data/inst
system.cpu.istage2_mmu.stage2_tlb.walker.walkRequestOrigin_Requested::Inst            0                       # Table walker requests started/completed, data/inst
system.cpu.istage2_mmu.stage2_tlb.walker.walkRequestOrigin_Requested::total            0                       # Table walker requests started/completed, data/inst
system.cpu.istage2_mmu.stage2_tlb.walker.walkRequestOrigin_Completed::Data            0                       # Table walker requests started/completed, data/inst
system.cpu.istage2_mmu.stage2_tlb.walker.walkRequestOrigin_Completed::Inst            0                       # Table walker requests started/completed, data/inst
system.cpu.istage2_mmu.stage2_tlb.walker.walkRequestOrigin_Completed::total            0                       # Table walker requests started/completed, data/inst
system.cpu.istage2_mmu.stage2_tlb.walker.walkRequestOrigin::total            0                       # Table walker requests started/completed, data/inst
system.cpu.istage2_mmu.stage2_tlb.walker.walks            0                       # Table walker walks requested
system.cpu.istage2_mmu.stage2_tlb.write_accesses            0                       # DTB write accesses
system.cpu.istage2_mmu.stage2_tlb.write_hits            0                       # DTB write hits
system.cpu.istage2_mmu.stage2_tlb.write_misses            0                       # DTB write misses
system.cpu.itb.accesses                             0                       # DTB accesses
system.cpu.itb.align_faults                         0                       # Number of TLB faults due to alignment restrictions
system.cpu.itb.domain_faults                        0                       # Number of TLB faults due to domain restrictions
system.cpu.itb.flush_entries                        0                       # Number of entries that have been flushed from TLB
system.cpu.itb.flush_tlb                            0                       # Number of times complete TLB was flushed
system.cpu.itb.flush_tlb_asid                       0                       # Number of times TLB was flushed by ASID
system.cpu.itb.flush_tlb_mva                        0                       # Number of times TLB was flushed by MVA
system.cpu.itb.flush_tlb_mva_asid                   0                       # Number of times TLB was flushed by MVA & ASID
system.cpu.itb.hits                                 0                       # DTB hits
system.cpu.itb.inst_accesses                        0                       # ITB inst accesses
system.cpu.itb.inst_hits                            0                       # ITB inst hits
system.cpu.itb.inst_misses                          0                       # ITB inst misses
system.cpu.itb.misses                               0                       # DTB misses
system.cpu.itb.perms_faults                         0                       # Number of TLB faults due to permissions restrictions
system.cpu.itb.prefetch_faults                      0                       # Number of TLB faults due to prefetch
system.cpu.itb.pwrStateResidencyTicks::UNDEFINED 501644452083000                       # Cumulative time (in ticks) in various power states
system.cpu.itb.read_accesses                        0                       # DTB read accesses
system.cpu.itb.read_hits                            0                       # DTB read hits
system.cpu.itb.read_misses                          0                       # DTB read misses
system.cpu.itb.walker.pwrStateResidencyTicks::UNDEFINED 501644452083000                       # Cumulative time (in ticks) in various power states
system.cpu.itb.walker.walkRequestOrigin_Requested::Data            0                       # Table walker requests started/completed, data/inst
system.cpu.itb.walker.walkRequestOrigin_Requested::Inst            0                       # Table walker requests started/completed, data/inst
system.cpu.itb.walker.walkRequestOrigin_Requested::total            0                       # Table walker requests started/completed, data/inst
system.cpu.itb.walker.walkRequestOrigin_Completed::Data            0                       # Table walker requests started/completed, data/inst
system.cpu.itb.walker.walkRequestOrigin_Completed::Inst            0                       # Table walker requests started/completed, data/inst
system.cpu.itb.walker.walkRequestOrigin_Completed::total            0                       # Table walker requests started/completed, data/inst
system.cpu.itb.walker.walkRequestOrigin::total            0                       # Table walker requests started/completed, data/inst
system.cpu.itb.walker.walks                         0                       # Table walker walks requested
system.cpu.itb.write_accesses                       0                       # DTB write accesses
system.cpu.itb.write_hits                           0                       # DTB write hits
system.cpu.itb.write_misses                         0                       # DTB write misses
system.cpu.not_idle_fraction                        1                       # Percentage of non-idle cycles
system.cpu.numCycles                     1003288904167                       # number of cpu cycles simulated
system.cpu.numWorkItemsCompleted                    0                       # number of work items this cpu completed
system.cpu.numWorkItemsStarted                      0                       # number of work items this cpu started
system.cpu.num_busy_cycles               1003288904167                       # Number of busy cycles
system.cpu.num_cc_register_reads           8915687694                       # number of times the CC registers were read
system.cpu.num_cc_register_writes          9493311849                       # number of times the CC registers were written
system.cpu.num_conditional_control_insts   2433716391                       # number of instructions that are conditional controls
system.cpu.num_fp_alu_accesses                      0                       # Number of float alu accesses
system.cpu.num_fp_insts                             0                       # number of float instructions
system.cpu.num_fp_register_reads                    0                       # number of times the floating registers were read
system.cpu.num_fp_register_writes                   0                       # number of times the floating registers were written
system.cpu.num_func_calls                    55513685                       # number of times a function call or return occured
system.cpu.num_idle_cycles                          0                       # Number of idle cycles
system.cpu.num_int_alu_accesses          508851132138                       # Number of integer alu accesses
system.cpu.num_int_insts                 508851132138                       # number of integer instructions
system.cpu.num_int_register_reads        2903984459309                       # number of times the integer registers were read
system.cpu.num_int_register_writes       480764457498                       # number of times the integer registers were written
system.cpu.num_load_insts                293395745237                       # Number of load instructions
system.cpu.num_mem_refs                  497302127503                       # number of memory refs
system.cpu.num_store_insts               203906382266                       # Number of store instructions
system.cpu.num_vec_alu_accesses          933597289024                       # Number of vector alu accesses
system.cpu.num_vec_insts                 933597289024                       # number of vector instructions
system.cpu.num_vec_register_reads        1367725313528                       # number of times the vector registers were read
system.cpu.num_vec_register_writes       732004114729                       # number of times the vector registers were written
system.cpu.op_class::No_OpClass                 83682      0.00%      0.00% # Class of executed instruction
system.cpu.op_class::IntAlu               13875280643      1.38%      1.38% # Class of executed instruction
system.cpu.op_class::IntMult                 44791905      0.00%      1.39% # Class of executed instruction
system.cpu.op_class::IntDiv                     19108      0.00%      1.39% # Class of executed instruction
system.cpu.op_class::FloatAdd                12199126      0.00%      1.39% # Class of executed instruction
system.cpu.op_class::FloatCmp               587521398      0.06%      1.45% # Class of executed instruction
system.cpu.op_class::FloatCvt               585792014      0.06%      1.51% # Class of executed instruction
system.cpu.op_class::FloatMult               10374666      0.00%      1.51% # Class of executed instruction
system.cpu.op_class::FloatMultAcc            27648003      0.00%      1.51% # Class of executed instruction
system.cpu.op_class::FloatDiv                 1735488      0.00%      1.51% # Class of executed instruction
system.cpu.op_class::FloatMisc               10372346      0.00%      1.51% # Class of executed instruction
system.cpu.op_class::FloatSqrt                1728000      0.00%      1.51% # Class of executed instruction
system.cpu.op_class::SimdAdd                   223037      0.00%      1.51% # Class of executed instruction
system.cpu.op_class::SimdAddAcc                     0      0.00%      1.51% # Class of executed instruction
system.cpu.op_class::SimdAlu              64905312174      6.47%      7.98% # Class of executed instruction
system.cpu.op_class::SimdCmp                   334712      0.00%      7.98% # Class of executed instruction
system.cpu.op_class::SimdCvt                        0      0.00%      7.98% # Class of executed instruction
system.cpu.op_class::SimdMisc             10932871775      1.09%      9.07% # Class of executed instruction
system.cpu.op_class::SimdMult                       0      0.00%      9.07% # Class of executed instruction
system.cpu.op_class::SimdMultAcc                    0      0.00%      9.07% # Class of executed instruction
system.cpu.op_class::SimdShift                      0      0.00%      9.07% # Class of executed instruction
system.cpu.op_class::SimdShiftAcc                   0      0.00%      9.07% # Class of executed instruction
system.cpu.op_class::SimdSqrt                       0      0.00%      9.07% # Class of executed instruction
system.cpu.op_class::SimdFloatAdd         95649244309      9.53%     18.60% # Class of executed instruction
system.cpu.op_class::SimdFloatAlu         10966678914      1.09%     19.70% # Class of executed instruction
system.cpu.op_class::SimdFloatCmp                   0      0.00%     19.70% # Class of executed instruction
system.cpu.op_class::SimdFloatCvt                   0      0.00%     19.70% # Class of executed instruction
system.cpu.op_class::SimdFloatDiv           683208888      0.07%     19.76% # Class of executed instruction
system.cpu.op_class::SimdFloatMisc                  0      0.00%     19.76% # Class of executed instruction
system.cpu.op_class::SimdFloatMult        92268536567      9.20%     28.96% # Class of executed instruction
system.cpu.op_class::SimdFloatMultAcc    215422819909     21.47%     50.43% # Class of executed instruction
system.cpu.op_class::SimdFloatSqrt                  0      0.00%     50.43% # Class of executed instruction
system.cpu.op_class::SimdAes                        0      0.00%     50.43% # Class of executed instruction
system.cpu.op_class::SimdAesMix                     0      0.00%     50.43% # Class of executed instruction
system.cpu.op_class::SimdSha1Hash                   0      0.00%     50.43% # Class of executed instruction
system.cpu.op_class::SimdSha1Hash2                  0      0.00%     50.43% # Class of executed instruction
system.cpu.op_class::SimdSha256Hash                 0      0.00%     50.43% # Class of executed instruction
system.cpu.op_class::SimdSha256Hash2                0      0.00%     50.43% # Class of executed instruction
system.cpu.op_class::SimdShaSigma2                  0      0.00%     50.43% # Class of executed instruction
system.cpu.op_class::SimdShaSigma3                  0      0.00%     50.43% # Class of executed instruction
system.cpu.op_class::MemRead             293395745237     29.24%     79.68% # Class of executed instruction
system.cpu.op_class::MemWrite            203906382266     20.32%    100.00% # Class of executed instruction
system.cpu.op_class::FloatMemRead                   0      0.00%    100.00% # Class of executed instruction
system.cpu.op_class::FloatMemWrite                  0      0.00%    100.00% # Class of executed instruction
system.cpu.op_class::IprAccess                      0      0.00%    100.00% # Class of executed instruction
system.cpu.op_class::InstPrefetch                   0      0.00%    100.00% # Class of executed instruction
system.cpu.op_class::total               1003288904167                       # Class of executed instruction
system.cpu.pwrStateResidencyTicks::ON    501644452083000                       # Cumulative time (in ticks) in various power states
system.cpu.workload.numSyscalls                  7667                       # Number of system calls
system.cpu_clk_domain.clock                       500                       # Clock period in ticks
system.cpu_voltage_domain.voltage                   1                       # Voltage in Volts
system.mem_ctrls.bw_inst_read::.cpu.inst   7176397577                       # Instruction read bandwidth from this memory (bytes/s)
system.mem_ctrls.bw_inst_read::total       7176397577                       # Instruction read bandwidth from this memory (bytes/s)
system.mem_ctrls.bw_read::.cpu.inst        7176397577                       # Total read bandwidth from this memory (bytes/s)
system.mem_ctrls.bw_read::.cpu.data        8510039487                       # Total read bandwidth from this memory (bytes/s)
system.mem_ctrls.bw_read::total           15686437065                       # Total read bandwidth from this memory (bytes/s)
system.mem_ctrls.bw_total::.cpu.inst       7176397577                       # Total bandwidth to/from this memory (bytes/s)
system.mem_ctrls.bw_total::.cpu.data      11761249237                       # Total bandwidth to/from this memory (bytes/s)
system.mem_ctrls.bw_total::total          18937646815                       # Total bandwidth to/from this memory (bytes/s)
system.mem_ctrls.bw_write::.cpu.data       3251209750                       # Write bandwidth from this memory (bytes/s)
system.mem_ctrls.bw_write::total           3251209750                       # Write bandwidth from this memory (bytes/s)
system.mem_ctrls.bytes_inst_read::.cpu.inst 3600000030680                       # Number of instructions bytes read from this memory
system.mem_ctrls.bytes_inst_read::total  3600000030680                       # Number of instructions bytes read from this memory
system.mem_ctrls.bytes_read::.cpu.inst   3600000030680                       # Number of bytes read from this memory
system.mem_ctrls.bytes_read::.cpu.data   4269014095679                       # Number of bytes read from this memory
system.mem_ctrls.bytes_read::total       7869014126359                       # Number of bytes read from this memory
system.mem_ctrls.bytes_written::.cpu.data 1630951333803                       # Number of bytes written to this memory
system.mem_ctrls.bytes_written::total    1630951333803                       # Number of bytes written to this memory
system.mem_ctrls.num_reads::.cpu.inst    900000007670                       # Number of read requests responded to by this memory
system.mem_ctrls.num_reads::.cpu.data    305774802426                       # Number of read requests responded to by this memory
system.mem_ctrls.num_reads::total        1205774810096                       # Number of read requests responded to by this memory
system.mem_ctrls.num_writes::.cpu.data   203906383126                       # Number of write requests responded to by this memory
system.mem_ctrls.num_writes::total       203906383126                       # Number of write requests responded to by this memory
system.mem_ctrls.pwrStateResidencyTicks::UNDEFINED 501644452083000                       # Cumulative time (in ticks) in various power states
system.membus.pwrStateResidencyTicks::UNDEFINED 501644452083000                       # Cumulative time (in ticks) in various power states
system.membus.snoopTraffic                          0                       # Total snoop traffic (bytes)
system.membus.snoop_fanout::samples                 0                       # Request fanout histogram
system.membus.snoop_fanout::mean                  nan                       # Request fanout histogram
system.membus.snoop_fanout::stdev                 nan                       # Request fanout histogram
system.membus.snoop_fanout::underflows              0                       # Request fanout histogram
system.membus.snoop_fanout::0                       0                       # Request fanout histogram
system.membus.snoop_fanout::1                       0                       # Request fanout histogram
system.membus.snoop_fanout::overflows               0                       # Request fanout histogram
system.membus.snoop_fanout::min_value               0                       # Request fanout histogram
system.membus.snoop_fanout::max_value               0                       # Request fanout histogram
system.membus.snoop_fanout::total                   0                       # Request fanout histogram
system.membus.snoop_filter.hit_multi_requests            0                       # Number of requests hitting in the snoop filter with multiple (>1) holders of the requested data.
system.membus.snoop_filter.hit_multi_snoops            0                       # Number of snoops hitting in the snoop filter with multiple (>1) holders of the requested data.
system.membus.snoop_filter.hit_single_requests            0                       # Number of requests hitting in the snoop filter with a single holder of the requested data.
system.membus.snoop_filter.hit_single_snoops            0                       # Number of snoops hitting in the snoop filter with a single holder of the requested data.
system.membus.snoop_filter.tot_requests             0                       # Total number of requests made to the snoop filter.
system.membus.snoop_filter.tot_snoops               0                       # Total number of snoops made to the snoop filter.
system.membus.snoops                                0                       # Total snoops (count)
system.pwrStateResidencyTicks::UNDEFINED 501644452083000                       # Cumulative time (in ticks) in various power states
system.voltage_domain.voltage                       1                       # Voltage in Volts

---------- End Simulation Statistics   ----------
