
******************************directory****************************
spec_dir: /home/cuihongwei/experiment/mcpat-gem5-master/spec2006
run_dir:  /home/cuihongwei/experiment/simpoint/401.bzip2/arm-401.bzip2-input2-190517-230249/run
gem5_dir: /home/cuihongwei/experiment/experiment-gem5/raw-gem5
gem5_output_dir: /home/cuihongwei/experiment/simpoint/401.bzip2/arm-401.bzip2-input2-190517-230249
benchmark_output:/home/cuihongwei/experiment/simpoint/401.bzip2/arm-401.bzip2-input2-190517-230249

******************************benchmark****************************
target:     401.bzip2
executable: bzip2
args:       chicken.jpg 30
input:      
output:     /home/cuihongwei/experiment/simpoint/401.bzip2/arm-401.bzip2-input2-190517-230249/run/chicken.jpg.out
errout:     /home/cuihongwei/experiment/simpoint/401.bzip2/arm-401.bzip2-input2-190517-230249/run/chicken.jpg.err

******************************gem5****************************
arch:       /home/cuihongwei/experiment/experiment-gem5/raw-gem5/build/ARM/gem5.opt
config:     /home/cuihongwei/experiment/experiment-gem5/raw-gem5/configs/example/se.py
args:       --simpoint-profile --simpoint-interval=100000000 --maxinsts=900000000000 --cpu-type=NonCachingSimpleCPU --mem-type=SimpleMemory --mem-size=8GB

******************************simulation****************************
start time:(year-mon-day hour-minute-second)19-05-17 23-02-49
gem5 Simulator System.  http://gem5.org
gem5 is copyrighted software; use the --copyright option for details.

gem5 compiled May 17 2019 22:58:52
gem5 started May 17 2019 23:02:50
gem5 executing on mprc-R730, pid 44708
command line: /home/cuihongwei/experiment/experiment-gem5/raw-gem5/build/ARM/gem5.opt --outdir=/home/cuihongwei/experiment/simpoint/401.bzip2/arm-401.bzip2-input2-190517-230249 --debug-flags=ShowRunning /home/cuihongwei/experiment/experiment-gem5/raw-gem5/configs/example/se.py --simpoint-profile --simpoint-interval=100000000 --maxinsts=900000000000 --cpu-type=NonCachingSimpleCPU --mem-type=SimpleMemory --mem-size=8GB --cmd=bzip2 '--options=chicken.jpg 30' --output=/home/cuihongwei/experiment/simpoint/401.bzip2/arm-401.bzip2-input2-190517-230249/run/chicken.jpg.out --input= --errout=/home/cuihongwei/experiment/simpoint/401.bzip2/arm-401.bzip2-input2-190517-230249/run/chicken.jpg.err

Global frequency set at 1000000000000 ticks per second
**** REAL SIMULATION ****
      0: system.cpu: Running Insts:               0
5000009500: system.cpu: Running Insts:        10000000
10000011000: system.cpu: Running Insts:        20000000
15000011000: system.cpu: Running Insts:        30000000
20000011500: system.cpu: Running Insts:        40000000
25000011500: system.cpu: Running Insts:        50000000
30000011500: system.cpu: Running Insts:        60000000
35000011500: system.cpu: Running Insts:        70000000
40000011500: system.cpu: Running Insts:        80000000
45000011500: system.cpu: Running Insts:        90000000
50000011500: system.cpu: Running Insts:       100000000
55000011500: system.cpu: Running Insts:       110000000
60000011500: system.cpu: Running Insts:       120000000
65000011500: system.cpu: Running Insts:       130000000
70000011500: system.cpu: Running Insts:       140000000
75000011500: system.cpu: Running Insts:       150000000
80000011500: system.cpu: Running Insts:       160000000
85000011500: system.cpu: Running Insts:       170000000
90000011500: system.cpu: Running Insts:       180000000
95000011500: system.cpu: Running Insts:       190000000
100000011500: system.cpu: Running Insts:       200000000
105000011500: system.cpu: Running Insts:       210000000
110000011500: system.cpu: Running Insts:       220000000
115000011500: system.cpu: Running Insts:       230000000
120000011500: system.cpu: Running Insts:       240000000
125000011500: system.cpu: Running Insts:       250000000
130000011500: system.cpu: Running Insts:       260000000
135000011500: system.cpu: Running Insts:       270000000
140000011500: system.cpu: Running Insts:       280000000
145000011500: system.cpu: Running Insts:       290000000
150000011500: system.cpu: Running Insts:       300000000
155000011500: system.cpu: Running Insts:       310000000
160000011500: system.cpu: Running Insts:       320000000
165000011500: system.cpu: Running Insts:       330000000
170000011500: system.cpu: Running Insts:       340000000
175000011500: system.cpu: Running Insts:       350000000
180000011500: system.cpu: Running Insts:       360000000
185000011500: system.cpu: Running Insts:       370000000
190000011500: system.cpu: Running Insts:       380000000
195000011500: system.cpu: Running Insts:       390000000
200000011500: system.cpu: Running Insts:       400000000
205000011500: system.cpu: Running Insts:       410000000
210000011500: system.cpu: Running Insts:       420000000
215000012000: system.cpu: Running Insts:       430000000
220000012000: system.cpu: Running Insts:       440000000
225000012000: system.cpu: Running Insts:       450000000
230000012000: system.cpu: Running Insts:       460000000
235000012000: system.cpu: Running Insts:       470000000
240000012000: system.cpu: Running Insts:       480000000
245000012000: system.cpu: Running Insts:       490000000
250000012000: system.cpu: Running Insts:       500000000
255000012000: system.cpu: Running Insts:       510000000
260000012000: system.cpu: Running Insts:       520000000
265000012000: system.cpu: Running Insts:       530000000
270000012000: system.cpu: Running Insts:       540000000
275000012000: system.cpu: Running Insts:       550000000
280000012000: system.cpu: Running Insts:       560000000
285000012000: system.cpu: Running Insts:       570000000
290000012000: system.cpu: Running Insts:       580000000
295000012000: system.cpu: Running Insts:       590000000
300000012000: system.cpu: Running Insts:       600000000
305000012000: system.cpu: Running Insts:       610000000
310000012000: system.cpu: Running Insts:       620000000
315000012000: system.cpu: Running Insts:       630000000
320000012000: system.cpu: Running Insts:       640000000
325000012000: system.cpu: Running Insts:       650000000
330000012000: system.cpu: Running Insts:       660000000
335000012000: system.cpu: Running Insts:       670000000
340000012000: system.cpu: Running Insts:       680000000
345000012000: system.cpu: Running Insts:       690000000
350000012000: system.cpu: Running Insts:       700000000
355000012000: system.cpu: Running Insts:       710000000
360000012000: system.cpu: Running Insts:       720000000
365000012000: system.cpu: Running Insts:       730000000
370000012000: system.cpu: Running Insts:       740000000
375000012000: system.cpu: Running Insts:       750000000
380000012000: system.cpu: Running Insts:       760000000
385000012000: system.cpu: Running Insts:       770000000
390000012000: system.cpu: Running Insts:       780000000
395000012000: system.cpu: Running Insts:       790000000
400000012000: system.cpu: Running Insts:       800000000
405000012000: system.cpu: Running Insts:       810000000
410000012000: system.cpu: Running Insts:       820000000
415000012000: system.cpu: Running Insts:       830000000
420000012000: system.cpu: Running Insts:       840000000
425000012000: system.cpu: Running Insts:       850000000
430000012000: system.cpu: Running Insts:       860000000
435000012000: system.cpu: Running Insts:       870000000
440000012000: system.cpu: Running Insts:       880000000
445000012000: system.cpu: Running Insts:       890000000
450000012000: system.cpu: Running Insts:       900000000
455000012000: system.cpu: Running Insts:       910000000
460000012000: system.cpu: Running Insts:       920000000
465000012000: system.cpu: Running Insts:       930000000
470000012000: system.cpu: Running Insts:       940000000
475000012000: system.cpu: Running Insts:       950000000
480000012000: system.cpu: Running Insts:       960000000
485000012000: system.cpu: Running Insts:       970000000
490000012000: system.cpu: Running Insts:       980000000
495000012000: system.cpu: Running Insts:       990000000
500000012000: system.cpu: Running Insts:      1000000000
505000012000: system.cpu: Running Insts:      1010000000
510000012000: system.cpu: Running Insts:      1020000000
515000012000: system.cpu: Running Insts:      1030000000
520000012000: system.cpu: Running Insts:      1040000000
525000012000: system.cpu: Running Insts:      1050000000
530000012000: system.cpu: Running Insts:      1060000000
535000012000: system.cpu: Running Insts:      1070000000
540000012000: system.cpu: Running Insts:      1080000000
545000012000: system.cpu: Running Insts:      1090000000
550000012000: system.cpu: Running Insts:      1100000000
555000012000: system.cpu: Running Insts:      1110000000
560000012000: system.cpu: Running Insts:      1120000000
565000012000: system.cpu: Running Insts:      1130000000
570000012000: system.cpu: Running Insts:      1140000000
575000012000: system.cpu: Running Insts:      1150000000
580000012000: system.cpu: Running Insts:      1160000000
585000012000: system.cpu: Running Insts:      1170000000
590000012000: system.cpu: Running Insts:      1180000000
595000012000: system.cpu: Running Insts:      1190000000
600000012000: system.cpu: Running Insts:      1200000000
605000012000: system.cpu: Running Insts:      1210000000
610000012000: system.cpu: Running Insts:      1220000000
615000012000: system.cpu: Running Insts:      1230000000
620000012000: system.cpu: Running Insts:      1240000000
625000012000: system.cpu: Running Insts:      1250000000
630000012000: system.cpu: Running Insts:      1260000000
635000012000: system.cpu: Running Insts:      1270000000
640000012000: system.cpu: Running Insts:      1280000000
645000012000: system.cpu: Running Insts:      1290000000
650000012000: system.cpu: Running Insts:      1300000000
655000012000: system.cpu: Running Insts:      1310000000
660000012000: system.cpu: Running Insts:      1320000000
665000012000: system.cpu: Running Insts:      1330000000
670000012000: system.cpu: Running Insts:      1340000000
675000012000: system.cpu: Running Insts:      1350000000
680000012000: system.cpu: Running Insts:      1360000000
685000012000: system.cpu: Running Insts:      1370000000
690000012000: system.cpu: Running Insts:      1380000000
695000012000: system.cpu: Running Insts:      1390000000
700000012000: system.cpu: Running Insts:      1400000000
705000012000: system.cpu: Running Insts:      1410000000
710000012000: system.cpu: Running Insts:      1420000000
715000012000: system.cpu: Running Insts:      1430000000
720000012000: system.cpu: Running Insts:      1440000000
725000012000: system.cpu: Running Insts:      1450000000
730000012000: system.cpu: Running Insts:      1460000000
735000012000: system.cpu: Running Insts:      1470000000
740000012000: system.cpu: Running Insts:      1480000000
745000012000: system.cpu: Running Insts:      1490000000
750000012000: system.cpu: Running Insts:      1500000000
755000012000: system.cpu: Running Insts:      1510000000
760000012000: system.cpu: Running Insts:      1520000000
765000012000: system.cpu: Running Insts:      1530000000
770000012000: system.cpu: Running Insts:      1540000000
775000012000: system.cpu: Running Insts:      1550000000
780000012000: system.cpu: Running Insts:      1560000000
785000012000: system.cpu: Running Insts:      1570000000
790000012000: system.cpu: Running Insts:      1580000000
795000012000: system.cpu: Running Insts:      1590000000
800000012000: system.cpu: Running Insts:      1600000000
805000012000: system.cpu: Running Insts:      1610000000
810000012000: system.cpu: Running Insts:      1620000000
815000012000: system.cpu: Running Insts:      1630000000
820000012000: system.cpu: Running Insts:      1640000000
825000012000: system.cpu: Running Insts:      1650000000
830000012000: system.cpu: Running Insts:      1660000000
835000012000: system.cpu: Running Insts:      1670000000
840000012000: system.cpu: Running Insts:      1680000000
845000012000: system.cpu: Running Insts:      1690000000
850000012000: system.cpu: Running Insts:      1700000000
855000012000: system.cpu: Running Insts:      1710000000
860000012000: system.cpu: Running Insts:      1720000000
865000012000: system.cpu: Running Insts:      1730000000
870000012000: system.cpu: Running Insts:      1740000000
875000012000: system.cpu: Running Insts:      1750000000
880000012000: system.cpu: Running Insts:      1760000000
885000012000: system.cpu: Running Insts:      1770000000
890000012000: system.cpu: Running Insts:      1780000000
895000012000: system.cpu: Running Insts:      1790000000
900000012000: system.cpu: Running Insts:      1800000000
905000012000: system.cpu: Running Insts:      1810000000
910000012000: system.cpu: Running Insts:      1820000000
915000012000: system.cpu: Running Insts:      1830000000
920000012000: system.cpu: Running Insts:      1840000000
925000012000: system.cpu: Running Insts:      1850000000
930000012000: system.cpu: Running Insts:      1860000000
935000012000: system.cpu: Running Insts:      1870000000
940000012000: system.cpu: Running Insts:      1880000000
945000012000: system.cpu: Running Insts:      1890000000
950000012000: system.cpu: Running Insts:      1900000000
955000012000: system.cpu: Running Insts:      1910000000
960000012000: system.cpu: Running Insts:      1920000000
965000012000: system.cpu: Running Insts:      1930000000
970000012000: system.cpu: Running Insts:      1940000000
975000012000: system.cpu: Running Insts:      1950000000
980000012000: system.cpu: Running Insts:      1960000000
985000012000: system.cpu: Running Insts:      1970000000
990000012000: system.cpu: Running Insts:      1980000000
995000012000: system.cpu: Running Insts:      1990000000
1000000012000: system.cpu: Running Insts:      2000000000
1005000012000: system.cpu: Running Insts:      2010000000
1010000012000: system.cpu: Running Insts:      2020000000
1015000012000: system.cpu: Running Insts:      2030000000
1020000012000: system.cpu: Running Insts:      2040000000
1025000012000: system.cpu: Running Insts:      2050000000
1030000012000: system.cpu: Running Insts:      2060000000
1035000012000: system.cpu: Running Insts:      2070000000
1040000012000: system.cpu: Running Insts:      2080000000
1045000012000: system.cpu: Running Insts:      2090000000
1050000012000: system.cpu: Running Insts:      2100000000
1055000012000: system.cpu: Running Insts:      2110000000
1060000012000: system.cpu: Running Insts:      2120000000
1065000012000: system.cpu: Running Insts:      2130000000
1070000012000: system.cpu: Running Insts:      2140000000
1075000012000: system.cpu: Running Insts:      2150000000
1080000012000: system.cpu: Running Insts:      2160000000
1085000012000: system.cpu: Running Insts:      2170000000
1090000012000: system.cpu: Running Insts:      2180000000
1095000012000: system.cpu: Running Insts:      2190000000
1100000012000: system.cpu: Running Insts:      2200000000
1105000012000: system.cpu: Running Insts:      2210000000
1110000012000: system.cpu: Running Insts:      2220000000
1115000012000: system.cpu: Running Insts:      2230000000
1120000012000: system.cpu: Running Insts:      2240000000
1125000012000: system.cpu: Running Insts:      2250000000
1130000012000: system.cpu: Running Insts:      2260000000
1135000012000: system.cpu: Running Insts:      2270000000
1140000012000: system.cpu: Running Insts:      2280000000
1145000012000: system.cpu: Running Insts:      2290000000
1150000012000: system.cpu: Running Insts:      2300000000
1155000012000: system.cpu: Running Insts:      2310000000
1160000012000: system.cpu: Running Insts:      2320000000
1165000012000: system.cpu: Running Insts:      2330000000
1170000012000: system.cpu: Running Insts:      2340000000
1175000012000: system.cpu: Running Insts:      2350000000
1180000012000: system.cpu: Running Insts:      2360000000
1185000012000: system.cpu: Running Insts:      2370000000
1190000012000: system.cpu: Running Insts:      2380000000
1195000012000: system.cpu: Running Insts:      2390000000
1200000012000: system.cpu: Running Insts:      2400000000
1205000012000: system.cpu: Running Insts:      2410000000
1210000012000: system.cpu: Running Insts:      2420000000
1215000012000: system.cpu: Running Insts:      2430000000
1220000012000: system.cpu: Running Insts:      2440000000
1225000012000: system.cpu: Running Insts:      2450000000
1230000012000: system.cpu: Running Insts:      2460000000
1235000012000: system.cpu: Running Insts:      2470000000
1240000012000: system.cpu: Running Insts:      2480000000
1245000012000: system.cpu: Running Insts:      2490000000
1250000012000: system.cpu: Running Insts:      2500000000
1255000012000: system.cpu: Running Insts:      2510000000
1260000012000: system.cpu: Running Insts:      2520000000
1265000012000: system.cpu: Running Insts:      2530000000
1270000012000: system.cpu: Running Insts:      2540000000
1275000012000: system.cpu: Running Insts:      2550000000
1280000012000: system.cpu: Running Insts:      2560000000
1285000012000: system.cpu: Running Insts:      2570000000
1290000012000: system.cpu: Running Insts:      2580000000
1295000012000: system.cpu: Running Insts:      2590000000
1300000012000: system.cpu: Running Insts:      2600000000
1305000012000: system.cpu: Running Insts:      2610000000
1310000012000: system.cpu: Running Insts:      2620000000
1315000012000: system.cpu: Running Insts:      2630000000
1320000012000: system.cpu: Running Insts:      2640000000
1325000012000: system.cpu: Running Insts:      2650000000
1330000012000: system.cpu: Running Insts:      2660000000
1335000012000: system.cpu: Running Insts:      2670000000
1340000012000: system.cpu: Running Insts:      2680000000
1345000012000: system.cpu: Running Insts:      2690000000
1350000012000: system.cpu: Running Insts:      2700000000
1355000012000: system.cpu: Running Insts:      2710000000
1360000012000: system.cpu: Running Insts:      2720000000
1365000012000: system.cpu: Running Insts:      2730000000
1370000012000: system.cpu: Running Insts:      2740000000
1375000012000: system.cpu: Running Insts:      2750000000
1380000012000: system.cpu: Running Insts:      2760000000
1385000012000: system.cpu: Running Insts:      2770000000
1390000012000: system.cpu: Running Insts:      2780000000
1395000012000: system.cpu: Running Insts:      2790000000
1400000012000: system.cpu: Running Insts:      2800000000
1405000012000: system.cpu: Running Insts:      2810000000
1410000012000: system.cpu: Running Insts:      2820000000
1415000012000: system.cpu: Running Insts:      2830000000
1420000012000: system.cpu: Running Insts:      2840000000
1425000012000: system.cpu: Running Insts:      2850000000
1430000012000: system.cpu: Running Insts:      2860000000
1435000012000: system.cpu: Running Insts:      2870000000
1440000012000: system.cpu: Running Insts:      2880000000
1445000012000: system.cpu: Running Insts:      2890000000
1450000012000: system.cpu: Running Insts:      2900000000
1455000012000: system.cpu: Running Insts:      2910000000
1460000012000: system.cpu: Running Insts:      2920000000
1465000012000: system.cpu: Running Insts:      2930000000
1470000012000: system.cpu: Running Insts:      2940000000
1475000012000: system.cpu: Running Insts:      2950000000
1480000012000: system.cpu: Running Insts:      2960000000
1485000012000: system.cpu: Running Insts:      2970000000
1490000012000: system.cpu: Running Insts:      2980000000
1495000012000: system.cpu: Running Insts:      2990000000
1500000012000: system.cpu: Running Insts:      3000000000
1505000012000: system.cpu: Running Insts:      3010000000
1510000012000: system.cpu: Running Insts:      3020000000
1515000012000: system.cpu: Running Insts:      3030000000
1520000012000: system.cpu: Running Insts:      3040000000
1525000012000: system.cpu: Running Insts:      3050000000
1530000012000: system.cpu: Running Insts:      3060000000
1535000012000: system.cpu: Running Insts:      3070000000
1540000012000: system.cpu: Running Insts:      3080000000
1545000012000: system.cpu: Running Insts:      3090000000
1550000012000: system.cpu: Running Insts:      3100000000
1555000012000: system.cpu: Running Insts:      3110000000
1560000012000: system.cpu: Running Insts:      3120000000
1565000012000: system.cpu: Running Insts:      3130000000
1570000012000: system.cpu: Running Insts:      3140000000
1575000012000: system.cpu: Running Insts:      3150000000
1580000012000: system.cpu: Running Insts:      3160000000
1585000012000: system.cpu: Running Insts:      3170000000
1590000012000: system.cpu: Running Insts:      3180000000
1595000012000: system.cpu: Running Insts:      3190000000
1600000012000: system.cpu: Running Insts:      3200000000
1605000012000: system.cpu: Running Insts:      3210000000
1610000012000: system.cpu: Running Insts:      3220000000
1615000012000: system.cpu: Running Insts:      3230000000
1620000012000: system.cpu: Running Insts:      3240000000
1625000012000: system.cpu: Running Insts:      3250000000
1630000012000: system.cpu: Running Insts:      3260000000
1635000012000: system.cpu: Running Insts:      3270000000
1640000012000: system.cpu: Running Insts:      3280000000
1645000012000: system.cpu: Running Insts:      3290000000
1650000012000: system.cpu: Running Insts:      3300000000
1655000012000: system.cpu: Running Insts:      3310000000
1660000012000: system.cpu: Running Insts:      3320000000
1665000012000: system.cpu: Running Insts:      3330000000
1670000012000: system.cpu: Running Insts:      3340000000
1675000012000: system.cpu: Running Insts:      3350000000
1680000012000: system.cpu: Running Insts:      3360000000
1685000012000: system.cpu: Running Insts:      3370000000
1690000012000: system.cpu: Running Insts:      3380000000
1695000012000: system.cpu: Running Insts:      3390000000
1700000012000: system.cpu: Running Insts:      3400000000
1705000012000: system.cpu: Running Insts:      3410000000
1710000012000: system.cpu: Running Insts:      3420000000
1715000012000: system.cpu: Running Insts:      3430000000
1720000012000: system.cpu: Running Insts:      3440000000
1725000012000: system.cpu: Running Insts:      3450000000
1730000012000: system.cpu: Running Insts:      3460000000
1735000012000: system.cpu: Running Insts:      3470000000
1740000012000: system.cpu: Running Insts:      3480000000
1745000012000: system.cpu: Running Insts:      3490000000
1750000012000: system.cpu: Running Insts:      3500000000
1755000012000: system.cpu: Running Insts:      3510000000
1760000012000: system.cpu: Running Insts:      3520000000
1765000012000: system.cpu: Running Insts:      3530000000
1770000012000: system.cpu: Running Insts:      3540000000
1775000012000: system.cpu: Running Insts:      3550000000
1780000012000: system.cpu: Running Insts:      3560000000
1785000012000: system.cpu: Running Insts:      3570000000
1790000012000: system.cpu: Running Insts:      3580000000
1795000012000: system.cpu: Running Insts:      3590000000
1800000012000: system.cpu: Running Insts:      3600000000
1805000012000: system.cpu: Running Insts:      3610000000
1810000012000: system.cpu: Running Insts:      3620000000
1815000012000: system.cpu: Running Insts:      3630000000
1820000012000: system.cpu: Running Insts:      3640000000
1825000012000: system.cpu: Running Insts:      3650000000
1830000012000: system.cpu: Running Insts:      3660000000
1835000012000: system.cpu: Running Insts:      3670000000
1840000012000: system.cpu: Running Insts:      3680000000
1845000012000: system.cpu: Running Insts:      3690000000
1850000012000: system.cpu: Running Insts:      3700000000
1855000012000: system.cpu: Running Insts:      3710000000
1860000012000: system.cpu: Running Insts:      3720000000
1865000012000: system.cpu: Running Insts:      3730000000
1870000012000: system.cpu: Running Insts:      3740000000
1875000012000: system.cpu: Running Insts:      3750000000
1880000012000: system.cpu: Running Insts:      3760000000
1885000012000: system.cpu: Running Insts:      3770000000
1890000012000: system.cpu: Running Insts:      3780000000
1895000012000: system.cpu: Running Insts:      3790000000
1900000012000: system.cpu: Running Insts:      3800000000
1905000012000: system.cpu: Running Insts:      3810000000
1910000012000: system.cpu: Running Insts:      3820000000
1915000012000: system.cpu: Running Insts:      3830000000
1920000012000: system.cpu: Running Insts:      3840000000
1925000012000: system.cpu: Running Insts:      3850000000
1930000012000: system.cpu: Running Insts:      3860000000
1935000012000: system.cpu: Running Insts:      3870000000
1940000012000: system.cpu: Running Insts:      3880000000
1945000012000: system.cpu: Running Insts:      3890000000
1950000012000: system.cpu: Running Insts:      3900000000
1955000012000: system.cpu: Running Insts:      3910000000
1960000012000: system.cpu: Running Insts:      3920000000
1965000012000: system.cpu: Running Insts:      3930000000
1970000012000: system.cpu: Running Insts:      3940000000
1975000012000: system.cpu: Running Insts:      3950000000
1980000012000: system.cpu: Running Insts:      3960000000
1985000012000: system.cpu: Running Insts:      3970000000
1990000012000: system.cpu: Running Insts:      3980000000
1995000012000: system.cpu: Running Insts:      3990000000
2000000012000: system.cpu: Running Insts:      4000000000
2005000012000: system.cpu: Running Insts:      4010000000
2010000012000: system.cpu: Running Insts:      4020000000
2015000012000: system.cpu: Running Insts:      4030000000
2020000012000: system.cpu: Running Insts:      4040000000
2025000012000: system.cpu: Running Insts:      4050000000
2030000012000: system.cpu: Running Insts:      4060000000
2035000012000: system.cpu: Running Insts:      4070000000
2040000012000: system.cpu: Running Insts:      4080000000
2045000012000: system.cpu: Running Insts:      4090000000
2050000012000: system.cpu: Running Insts:      4100000000
2055000012000: system.cpu: Running Insts:      4110000000
2060000012000: system.cpu: Running Insts:      4120000000
2065000012000: system.cpu: Running Insts:      4130000000
2070000012000: system.cpu: Running Insts:      4140000000
2075000012000: system.cpu: Running Insts:      4150000000
2080000012000: system.cpu: Running Insts:      4160000000
2085000012000: system.cpu: Running Insts:      4170000000
2090000012000: system.cpu: Running Insts:      4180000000
2095000012000: system.cpu: Running Insts:      4190000000
2100000012000: system.cpu: Running Insts:      4200000000
2105000012000: system.cpu: Running Insts:      4210000000
2110000012000: system.cpu: Running Insts:      4220000000
2115000012000: system.cpu: Running Insts:      4230000000
2120000012000: system.cpu: Running Insts:      4240000000
2125000012000: system.cpu: Running Insts:      4250000000
2130000012000: system.cpu: Running Insts:      4260000000
2135000012000: system.cpu: Running Insts:      4270000000
2140000012000: system.cpu: Running Insts:      4280000000
2145000012000: system.cpu: Running Insts:      4290000000
2150000012000: system.cpu: Running Insts:      4300000000
2155000012000: system.cpu: Running Insts:      4310000000
2160000012000: system.cpu: Running Insts:      4320000000
2165000012000: system.cpu: Running Insts:      4330000000
2170000012000: system.cpu: Running Insts:      4340000000
2175000012000: system.cpu: Running Insts:      4350000000
2180000012000: system.cpu: Running Insts:      4360000000
2185000012000: system.cpu: Running Insts:      4370000000
2190000012000: system.cpu: Running Insts:      4380000000
2195000012000: system.cpu: Running Insts:      4390000000
2200000012000: system.cpu: Running Insts:      4400000000
2205000012000: system.cpu: Running Insts:      4410000000
2210000012000: system.cpu: Running Insts:      4420000000
2215000012000: system.cpu: Running Insts:      4430000000
2220000012000: system.cpu: Running Insts:      4440000000
2225000012000: system.cpu: Running Insts:      4450000000
2230000012000: system.cpu: Running Insts:      4460000000
2235000012000: system.cpu: Running Insts:      4470000000
2240000012000: system.cpu: Running Insts:      4480000000
2245000012000: system.cpu: Running Insts:      4490000000
2250000012000: system.cpu: Running Insts:      4500000000
2255000012000: system.cpu: Running Insts:      4510000000
2260000012000: system.cpu: Running Insts:      4520000000
2265000012000: system.cpu: Running Insts:      4530000000
2270000012000: system.cpu: Running Insts:      4540000000
2275000012000: system.cpu: Running Insts:      4550000000
2280000012000: system.cpu: Running Insts:      4560000000
2285000012000: system.cpu: Running Insts:      4570000000
2290000012000: system.cpu: Running Insts:      4580000000
2295000012000: system.cpu: Running Insts:      4590000000
2300000012000: system.cpu: Running Insts:      4600000000
2305000012000: system.cpu: Running Insts:      4610000000
2310000012000: system.cpu: Running Insts:      4620000000
2315000012000: system.cpu: Running Insts:      4630000000
2320000012000: system.cpu: Running Insts:      4640000000
2325000012000: system.cpu: Running Insts:      4650000000
2330000012000: system.cpu: Running Insts:      4660000000
2335000012000: system.cpu: Running Insts:      4670000000
2340000012000: system.cpu: Running Insts:      4680000000
2345000012000: system.cpu: Running Insts:      4690000000
2350000012000: system.cpu: Running Insts:      4700000000
2355000012000: system.cpu: Running Insts:      4710000000
2360000012000: system.cpu: Running Insts:      4720000000
2365000012000: system.cpu: Running Insts:      4730000000
2370000012000: system.cpu: Running Insts:      4740000000
2375000012000: system.cpu: Running Insts:      4750000000
2380000012000: system.cpu: Running Insts:      4760000000
2385000012000: system.cpu: Running Insts:      4770000000
2390000012000: system.cpu: Running Insts:      4780000000
2395000012000: system.cpu: Running Insts:      4790000000
2400000012000: system.cpu: Running Insts:      4800000000
2405000012000: system.cpu: Running Insts:      4810000000
2410000012000: system.cpu: Running Insts:      4820000000
2415000012000: system.cpu: Running Insts:      4830000000
2420000012000: system.cpu: Running Insts:      4840000000
2425000012000: system.cpu: Running Insts:      4850000000
2430000012000: system.cpu: Running Insts:      4860000000
2435000012000: system.cpu: Running Insts:      4870000000
2440000012000: system.cpu: Running Insts:      4880000000
2445000012000: system.cpu: Running Insts:      4890000000
2450000012000: system.cpu: Running Insts:      4900000000
2455000012000: system.cpu: Running Insts:      4910000000
2460000012000: system.cpu: Running Insts:      4920000000
2465000012000: system.cpu: Running Insts:      4930000000
2470000012000: system.cpu: Running Insts:      4940000000
2475000012000: system.cpu: Running Insts:      4950000000
2480000012000: system.cpu: Running Insts:      4960000000
2485000012000: system.cpu: Running Insts:      4970000000
2490000012000: system.cpu: Running Insts:      4980000000
2495000012000: system.cpu: Running Insts:      4990000000
2500000012000: system.cpu: Running Insts:      5000000000
2505000012000: system.cpu: Running Insts:      5010000000
2510000012000: system.cpu: Running Insts:      5020000000
2515000012000: system.cpu: Running Insts:      5030000000
2520000012000: system.cpu: Running Insts:      5040000000
2525000012000: system.cpu: Running Insts:      5050000000
2530000012000: system.cpu: Running Insts:      5060000000
2535000012000: system.cpu: Running Insts:      5070000000
2540000012000: system.cpu: Running Insts:      5080000000
2545000012000: system.cpu: Running Insts:      5090000000
2550000012000: system.cpu: Running Insts:      5100000000
2555000012000: system.cpu: Running Insts:      5110000000
2560000012000: system.cpu: Running Insts:      5120000000
2565000012000: system.cpu: Running Insts:      5130000000
2570000012000: system.cpu: Running Insts:      5140000000
2575000012000: system.cpu: Running Insts:      5150000000
2580000012000: system.cpu: Running Insts:      5160000000
2585000012000: system.cpu: Running Insts:      5170000000
2590000012000: system.cpu: Running Insts:      5180000000
2595000012000: system.cpu: Running Insts:      5190000000
2600000012000: system.cpu: Running Insts:      5200000000
2605000012000: system.cpu: Running Insts:      5210000000
2610000012000: system.cpu: Running Insts:      5220000000
2615000012000: system.cpu: Running Insts:      5230000000
2620000012000: system.cpu: Running Insts:      5240000000
2625000012000: system.cpu: Running Insts:      5250000000
2630000012000: system.cpu: Running Insts:      5260000000
2635000012000: system.cpu: Running Insts:      5270000000
2640000012000: system.cpu: Running Insts:      5280000000
2645000012000: system.cpu: Running Insts:      5290000000
2650000012000: system.cpu: Running Insts:      5300000000
2655000012000: system.cpu: Running Insts:      5310000000
2660000012000: system.cpu: Running Insts:      5320000000
2665000012000: system.cpu: Running Insts:      5330000000
2670000012000: system.cpu: Running Insts:      5340000000
2675000012000: system.cpu: Running Insts:      5350000000
2680000012000: system.cpu: Running Insts:      5360000000
2685000012000: system.cpu: Running Insts:      5370000000
2690000012000: system.cpu: Running Insts:      5380000000
2695000012000: system.cpu: Running Insts:      5390000000
2700000012000: system.cpu: Running Insts:      5400000000
2705000012000: system.cpu: Running Insts:      5410000000
2710000012000: system.cpu: Running Insts:      5420000000
2715000012000: system.cpu: Running Insts:      5430000000
2720000012000: system.cpu: Running Insts:      5440000000
2725000012000: system.cpu: Running Insts:      5450000000
2730000012000: system.cpu: Running Insts:      5460000000
2735000012000: system.cpu: Running Insts:      5470000000
2740000012000: system.cpu: Running Insts:      5480000000
2745000012000: system.cpu: Running Insts:      5490000000
2750000012000: system.cpu: Running Insts:      5500000000
2755000012000: system.cpu: Running Insts:      5510000000
2760000012000: system.cpu: Running Insts:      5520000000
2765000012000: system.cpu: Running Insts:      5530000000
2770000012000: system.cpu: Running Insts:      5540000000
2775000012000: system.cpu: Running Insts:      5550000000
2780000012000: system.cpu: Running Insts:      5560000000
2785000012000: system.cpu: Running Insts:      5570000000
2790000012000: system.cpu: Running Insts:      5580000000
2795000012000: system.cpu: Running Insts:      5590000000
2800000012000: system.cpu: Running Insts:      5600000000
2805000012000: system.cpu: Running Insts:      5610000000
2810000012000: system.cpu: Running Insts:      5620000000
2815000012000: system.cpu: Running Insts:      5630000000
2820000012000: system.cpu: Running Insts:      5640000000
2825000012000: system.cpu: Running Insts:      5650000000
2830000012000: system.cpu: Running Insts:      5660000000
2835000012000: system.cpu: Running Insts:      5670000000
2840000012000: system.cpu: Running Insts:      5680000000
2845000012000: system.cpu: Running Insts:      5690000000
2850000012000: system.cpu: Running Insts:      5700000000
2855000012000: system.cpu: Running Insts:      5710000000
2860000012000: system.cpu: Running Insts:      5720000000
2865000012000: system.cpu: Running Insts:      5730000000
2870000012000: system.cpu: Running Insts:      5740000000
2875000012000: system.cpu: Running Insts:      5750000000
2880000012000: system.cpu: Running Insts:      5760000000
2885000012000: system.cpu: Running Insts:      5770000000
2890000012000: system.cpu: Running Insts:      5780000000
2895000012000: system.cpu: Running Insts:      5790000000
2900000012000: system.cpu: Running Insts:      5800000000
2905000012000: system.cpu: Running Insts:      5810000000
2910000012000: system.cpu: Running Insts:      5820000000
2915000012000: system.cpu: Running Insts:      5830000000
2920000012000: system.cpu: Running Insts:      5840000000
2925000012000: system.cpu: Running Insts:      5850000000
2930000012000: system.cpu: Running Insts:      5860000000
2935000012000: system.cpu: Running Insts:      5870000000
2940000012000: system.cpu: Running Insts:      5880000000
2945000012000: system.cpu: Running Insts:      5890000000
2950000012000: system.cpu: Running Insts:      5900000000
2955000012000: system.cpu: Running Insts:      5910000000
2960000012000: system.cpu: Running Insts:      5920000000
2965000012000: system.cpu: Running Insts:      5930000000
2970000012000: system.cpu: Running Insts:      5940000000
2975000012000: system.cpu: Running Insts:      5950000000
2980000012000: system.cpu: Running Insts:      5960000000
2985000012000: system.cpu: Running Insts:      5970000000
2990000012000: system.cpu: Running Insts:      5980000000
2995000012000: system.cpu: Running Insts:      5990000000
3000000012000: system.cpu: Running Insts:      6000000000
3005000012000: system.cpu: Running Insts:      6010000000
3010000012000: system.cpu: Running Insts:      6020000000
3015000012000: system.cpu: Running Insts:      6030000000
3020000012000: system.cpu: Running Insts:      6040000000
3025000012000: system.cpu: Running Insts:      6050000000
3030000012000: system.cpu: Running Insts:      6060000000
3035000012000: system.cpu: Running Insts:      6070000000
3040000012000: system.cpu: Running Insts:      6080000000
3045000012000: system.cpu: Running Insts:      6090000000
3050000012000: system.cpu: Running Insts:      6100000000
3055000012000: system.cpu: Running Insts:      6110000000
3060000012000: system.cpu: Running Insts:      6120000000
3065000012000: system.cpu: Running Insts:      6130000000
3070000012000: system.cpu: Running Insts:      6140000000
3075000012000: system.cpu: Running Insts:      6150000000
3080000012000: system.cpu: Running Insts:      6160000000
3085000012000: system.cpu: Running Insts:      6170000000
3090000012000: system.cpu: Running Insts:      6180000000
3095000012000: system.cpu: Running Insts:      6190000000
3100000012000: system.cpu: Running Insts:      6200000000
3105000012000: system.cpu: Running Insts:      6210000000
3110000012000: system.cpu: Running Insts:      6220000000
3115000012000: system.cpu: Running Insts:      6230000000
3120000012000: system.cpu: Running Insts:      6240000000
3125000012000: system.cpu: Running Insts:      6250000000
3130000012000: system.cpu: Running Insts:      6260000000
3135000012000: system.cpu: Running Insts:      6270000000
3140000012000: system.cpu: Running Insts:      6280000000
3145000012000: system.cpu: Running Insts:      6290000000
3150000012000: system.cpu: Running Insts:      6300000000
3155000012000: system.cpu: Running Insts:      6310000000
3160000012000: system.cpu: Running Insts:      6320000000
3165000012000: system.cpu: Running Insts:      6330000000
3170000012000: system.cpu: Running Insts:      6340000000
3175000012000: system.cpu: Running Insts:      6350000000
3180000012000: system.cpu: Running Insts:      6360000000
3185000012000: system.cpu: Running Insts:      6370000000
3190000012000: system.cpu: Running Insts:      6380000000
3195000012000: system.cpu: Running Insts:      6390000000
3200000012000: system.cpu: Running Insts:      6400000000
3205000012000: system.cpu: Running Insts:      6410000000
3210000012000: system.cpu: Running Insts:      6420000000
3215000012000: system.cpu: Running Insts:      6430000000
3220000012000: system.cpu: Running Insts:      6440000000
3225000012000: system.cpu: Running Insts:      6450000000
3230000012000: system.cpu: Running Insts:      6460000000
3235000012000: system.cpu: Running Insts:      6470000000
3240000012000: system.cpu: Running Insts:      6480000000
3245000012000: system.cpu: Running Insts:      6490000000
3250000012000: system.cpu: Running Insts:      6500000000
3255000012000: system.cpu: Running Insts:      6510000000
3260000012000: system.cpu: Running Insts:      6520000000
3265000012000: system.cpu: Running Insts:      6530000000
3270000012000: system.cpu: Running Insts:      6540000000
3275000012000: system.cpu: Running Insts:      6550000000
3280000012000: system.cpu: Running Insts:      6560000000
3285000012000: system.cpu: Running Insts:      6570000000
3290000012000: system.cpu: Running Insts:      6580000000
3295000012000: system.cpu: Running Insts:      6590000000
3300000012000: system.cpu: Running Insts:      6600000000
3305000012000: system.cpu: Running Insts:      6610000000
3310000012000: system.cpu: Running Insts:      6620000000
3315000012000: system.cpu: Running Insts:      6630000000
3320000012000: system.cpu: Running Insts:      6640000000
3325000012000: system.cpu: Running Insts:      6650000000
3330000012000: system.cpu: Running Insts:      6660000000
3335000012000: system.cpu: Running Insts:      6670000000
3340000012000: system.cpu: Running Insts:      6680000000
3345000012000: system.cpu: Running Insts:      6690000000
3350000012000: system.cpu: Running Insts:      6700000000
3355000012000: system.cpu: Running Insts:      6710000000
3360000012000: system.cpu: Running Insts:      6720000000
3365000012000: system.cpu: Running Insts:      6730000000
3370000012000: system.cpu: Running Insts:      6740000000
3375000012000: system.cpu: Running Insts:      6750000000
3380000012000: system.cpu: Running Insts:      6760000000
3385000012000: system.cpu: Running Insts:      6770000000
3390000012000: system.cpu: Running Insts:      6780000000
3395000012000: system.cpu: Running Insts:      6790000000
3400000012000: system.cpu: Running Insts:      6800000000
3405000012000: system.cpu: Running Insts:      6810000000
3410000012000: system.cpu: Running Insts:      6820000000
3415000012000: system.cpu: Running Insts:      6830000000
3420000012000: system.cpu: Running Insts:      6840000000
3425000012000: system.cpu: Running Insts:      6850000000
3430000012000: system.cpu: Running Insts:      6860000000
3435000012000: system.cpu: Running Insts:      6870000000
3440000012000: system.cpu: Running Insts:      6880000000
3445000012000: system.cpu: Running Insts:      6890000000
3450000012000: system.cpu: Running Insts:      6900000000
3455000012000: system.cpu: Running Insts:      6910000000
3460000012000: system.cpu: Running Insts:      6920000000
3465000012000: system.cpu: Running Insts:      6930000000
3470000012000: system.cpu: Running Insts:      6940000000
3475000012000: system.cpu: Running Insts:      6950000000
3480000012000: system.cpu: Running Insts:      6960000000
3485000012000: system.cpu: Running Insts:      6970000000
3490000012000: system.cpu: Running Insts:      6980000000
3495000012000: system.cpu: Running Insts:      6990000000
3500000012000: system.cpu: Running Insts:      7000000000
3505000012000: system.cpu: Running Insts:      7010000000
3510000012000: system.cpu: Running Insts:      7020000000
3515000012000: system.cpu: Running Insts:      7030000000
3520000012000: system.cpu: Running Insts:      7040000000
3525000012000: system.cpu: Running Insts:      7050000000
3530000012000: system.cpu: Running Insts:      7060000000
3535000012000: system.cpu: Running Insts:      7070000000
3540000012000: system.cpu: Running Insts:      7080000000
3545000012000: system.cpu: Running Insts:      7090000000
3550000012000: system.cpu: Running Insts:      7100000000
3555000012000: system.cpu: Running Insts:      7110000000
3560000012000: system.cpu: Running Insts:      7120000000
3565000012000: system.cpu: Running Insts:      7130000000
3570000012000: system.cpu: Running Insts:      7140000000
3575000012000: system.cpu: Running Insts:      7150000000
3580000012000: system.cpu: Running Insts:      7160000000
3585000012000: system.cpu: Running Insts:      7170000000
3590000012000: system.cpu: Running Insts:      7180000000
3595000012000: system.cpu: Running Insts:      7190000000
3600000012000: system.cpu: Running Insts:      7200000000
3605000012000: system.cpu: Running Insts:      7210000000
3610000012000: system.cpu: Running Insts:      7220000000
3615000012000: system.cpu: Running Insts:      7230000000
3620000012000: system.cpu: Running Insts:      7240000000
3625000012000: system.cpu: Running Insts:      7250000000
3630000012000: system.cpu: Running Insts:      7260000000
3635000012000: system.cpu: Running Insts:      7270000000
3640000012000: system.cpu: Running Insts:      7280000000
3645000012000: system.cpu: Running Insts:      7290000000
3650000012000: system.cpu: Running Insts:      7300000000
3655000012000: system.cpu: Running Insts:      7310000000
3660000012000: system.cpu: Running Insts:      7320000000
3665000012000: system.cpu: Running Insts:      7330000000
3670000012000: system.cpu: Running Insts:      7340000000
3675000012000: system.cpu: Running Insts:      7350000000
3680000012000: system.cpu: Running Insts:      7360000000
3685000012000: system.cpu: Running Insts:      7370000000
3690000012000: system.cpu: Running Insts:      7380000000
3695000012000: system.cpu: Running Insts:      7390000000
3700000012000: system.cpu: Running Insts:      7400000000
3705000012000: system.cpu: Running Insts:      7410000000
3710000012000: system.cpu: Running Insts:      7420000000
3715000012000: system.cpu: Running Insts:      7430000000
3720000012000: system.cpu: Running Insts:      7440000000
3725000012000: system.cpu: Running Insts:      7450000000
3730000012000: system.cpu: Running Insts:      7460000000
3735000012000: system.cpu: Running Insts:      7470000000
3740000012000: system.cpu: Running Insts:      7480000000
3745000012000: system.cpu: Running Insts:      7490000000
3750000012000: system.cpu: Running Insts:      7500000000
3755000012000: system.cpu: Running Insts:      7510000000
3760000012000: system.cpu: Running Insts:      7520000000
3765000012000: system.cpu: Running Insts:      7530000000
3770000012000: system.cpu: Running Insts:      7540000000
3775000012000: system.cpu: Running Insts:      7550000000
3780000012000: system.cpu: Running Insts:      7560000000
3785000012000: system.cpu: Running Insts:      7570000000
3790000012000: system.cpu: Running Insts:      7580000000
3795000012000: system.cpu: Running Insts:      7590000000
3800000012000: system.cpu: Running Insts:      7600000000
3805000012000: system.cpu: Running Insts:      7610000000
3810000012000: system.cpu: Running Insts:      7620000000
3815000012000: system.cpu: Running Insts:      7630000000
3820000012000: system.cpu: Running Insts:      7640000000
3825000012000: system.cpu: Running Insts:      7650000000
3830000012000: system.cpu: Running Insts:      7660000000
3835000012000: system.cpu: Running Insts:      7670000000
3840000012000: system.cpu: Running Insts:      7680000000
3845000012000: system.cpu: Running Insts:      7690000000
3850000012000: system.cpu: Running Insts:      7700000000
3855000012000: system.cpu: Running Insts:      7710000000
3860000012000: system.cpu: Running Insts:      7720000000
3865000012000: system.cpu: Running Insts:      7730000000
3870000012000: system.cpu: Running Insts:      7740000000
3875000012000: system.cpu: Running Insts:      7750000000
3880000012000: system.cpu: Running Insts:      7760000000
3885000012000: system.cpu: Running Insts:      7770000000
3890000012000: system.cpu: Running Insts:      7780000000
3895000012000: system.cpu: Running Insts:      7790000000
3900000012000: system.cpu: Running Insts:      7800000000
3905000012000: system.cpu: Running Insts:      7810000000
3910000012000: system.cpu: Running Insts:      7820000000
3915000012000: system.cpu: Running Insts:      7830000000
3920000012000: system.cpu: Running Insts:      7840000000
3925000012000: system.cpu: Running Insts:      7850000000
3930000012000: system.cpu: Running Insts:      7860000000
3935000012000: system.cpu: Running Insts:      7870000000
3940000012000: system.cpu: Running Insts:      7880000000
3945000012000: system.cpu: Running Insts:      7890000000
3950000012000: system.cpu: Running Insts:      7900000000
3955000012000: system.cpu: Running Insts:      7910000000
3960000012000: system.cpu: Running Insts:      7920000000
3965000012000: system.cpu: Running Insts:      7930000000
3970000012000: system.cpu: Running Insts:      7940000000
3975000012000: system.cpu: Running Insts:      7950000000
3980000012000: system.cpu: Running Insts:      7960000000
3985000012000: system.cpu: Running Insts:      7970000000
3990000012000: system.cpu: Running Insts:      7980000000
3995000012000: system.cpu: Running Insts:      7990000000
4000000012000: system.cpu: Running Insts:      8000000000
4005000012000: system.cpu: Running Insts:      8010000000
4010000012000: system.cpu: Running Insts:      8020000000
4015000012000: system.cpu: Running Insts:      8030000000
4020000012000: system.cpu: Running Insts:      8040000000
4025000012000: system.cpu: Running Insts:      8050000000
4030000012000: system.cpu: Running Insts:      8060000000
4035000012000: system.cpu: Running Insts:      8070000000
4040000012000: system.cpu: Running Insts:      8080000000
4045000012000: system.cpu: Running Insts:      8090000000
4050000012000: system.cpu: Running Insts:      8100000000
4055000012000: system.cpu: Running Insts:      8110000000
4060000012000: system.cpu: Running Insts:      8120000000
4065000012000: system.cpu: Running Insts:      8130000000
4070000012000: system.cpu: Running Insts:      8140000000
4075000012000: system.cpu: Running Insts:      8150000000
4080000012000: system.cpu: Running Insts:      8160000000
4085000012000: system.cpu: Running Insts:      8170000000
4090000012000: system.cpu: Running Insts:      8180000000
4095000012000: system.cpu: Running Insts:      8190000000
4100000012000: system.cpu: Running Insts:      8200000000
4105000012000: system.cpu: Running Insts:      8210000000
4110000012000: system.cpu: Running Insts:      8220000000
4115000012000: system.cpu: Running Insts:      8230000000
4120000012000: system.cpu: Running Insts:      8240000000
4125000012000: system.cpu: Running Insts:      8250000000
4130000012000: system.cpu: Running Insts:      8260000000
4135000012000: system.cpu: Running Insts:      8270000000
4140000012000: system.cpu: Running Insts:      8280000000
4145000012000: system.cpu: Running Insts:      8290000000
4150000012000: system.cpu: Running Insts:      8300000000
4155000012000: system.cpu: Running Insts:      8310000000
4160000012000: system.cpu: Running Insts:      8320000000
4165000012000: system.cpu: Running Insts:      8330000000
4170000012000: system.cpu: Running Insts:      8340000000
4175000012000: system.cpu: Running Insts:      8350000000
4180000012000: system.cpu: Running Insts:      8360000000
4185000012000: system.cpu: Running Insts:      8370000000
4190000012000: system.cpu: Running Insts:      8380000000
4195000012000: system.cpu: Running Insts:      8390000000
4200000012000: system.cpu: Running Insts:      8400000000
4205000012000: system.cpu: Running Insts:      8410000000
4210000012000: system.cpu: Running Insts:      8420000000
4215000012000: system.cpu: Running Insts:      8430000000
4220000012000: system.cpu: Running Insts:      8440000000
4225000012000: system.cpu: Running Insts:      8450000000
4230000012000: system.cpu: Running Insts:      8460000000
4235000012000: system.cpu: Running Insts:      8470000000
4240000012000: system.cpu: Running Insts:      8480000000
4245000012000: system.cpu: Running Insts:      8490000000
4250000012000: system.cpu: Running Insts:      8500000000
4255000012000: system.cpu: Running Insts:      8510000000
4260000012000: system.cpu: Running Insts:      8520000000
4265000012000: system.cpu: Running Insts:      8530000000
4270000012000: system.cpu: Running Insts:      8540000000
4275000012000: system.cpu: Running Insts:      8550000000
4280000012000: system.cpu: Running Insts:      8560000000
4285000012000: system.cpu: Running Insts:      8570000000
4290000012000: system.cpu: Running Insts:      8580000000
4295000012000: system.cpu: Running Insts:      8590000000
4300000012000: system.cpu: Running Insts:      8600000000
4305000012000: system.cpu: Running Insts:      8610000000
4310000012000: system.cpu: Running Insts:      8620000000
4315000012000: system.cpu: Running Insts:      8630000000
4320000012000: system.cpu: Running Insts:      8640000000
4325000012000: system.cpu: Running Insts:      8650000000
4330000012000: system.cpu: Running Insts:      8660000000
4335000012000: system.cpu: Running Insts:      8670000000
4340000012000: system.cpu: Running Insts:      8680000000
4345000012000: system.cpu: Running Insts:      8690000000
4350000012000: system.cpu: Running Insts:      8700000000
4355000012000: system.cpu: Running Insts:      8710000000
4360000012000: system.cpu: Running Insts:      8720000000
4365000012000: system.cpu: Running Insts:      8730000000
4370000012000: system.cpu: Running Insts:      8740000000
4375000012000: system.cpu: Running Insts:      8750000000
4380000012000: system.cpu: Running Insts:      8760000000
4385000012000: system.cpu: Running Insts:      8770000000
4390000012000: system.cpu: Running Insts:      8780000000
4395000012000: system.cpu: Running Insts:      8790000000
4400000012000: system.cpu: Running Insts:      8800000000
4405000012000: system.cpu: Running Insts:      8810000000
4410000012000: system.cpu: Running Insts:      8820000000
4415000012000: system.cpu: Running Insts:      8830000000
4420000012000: system.cpu: Running Insts:      8840000000
4425000012000: system.cpu: Running Insts:      8850000000
4430000012000: system.cpu: Running Insts:      8860000000
4435000012000: system.cpu: Running Insts:      8870000000
4440000012000: system.cpu: Running Insts:      8880000000
4445000012000: system.cpu: Running Insts:      8890000000
4450000012000: system.cpu: Running Insts:      8900000000
4455000012000: system.cpu: Running Insts:      8910000000
4460000012000: system.cpu: Running Insts:      8920000000
4465000012000: system.cpu: Running Insts:      8930000000
4470000012000: system.cpu: Running Insts:      8940000000
4475000012000: system.cpu: Running Insts:      8950000000
4480000012000: system.cpu: Running Insts:      8960000000
4485000012000: system.cpu: Running Insts:      8970000000
4490000012000: system.cpu: Running Insts:      8980000000
4495000012000: system.cpu: Running Insts:      8990000000
4500000012000: system.cpu: Running Insts:      9000000000
4505000012000: system.cpu: Running Insts:      9010000000
4510000012000: system.cpu: Running Insts:      9020000000
4515000012000: system.cpu: Running Insts:      9030000000
4520000012000: system.cpu: Running Insts:      9040000000
4525000012000: system.cpu: Running Insts:      9050000000
4530000012000: system.cpu: Running Insts:      9060000000
4535000012000: system.cpu: Running Insts:      9070000000
4540000012000: system.cpu: Running Insts:      9080000000
4545000012000: system.cpu: Running Insts:      9090000000
4550000012000: system.cpu: Running Insts:      9100000000
4555000012000: system.cpu: Running Insts:      9110000000
4560000012000: system.cpu: Running Insts:      9120000000
4565000012000: system.cpu: Running Insts:      9130000000
4570000012000: system.cpu: Running Insts:      9140000000
4575000012000: system.cpu: Running Insts:      9150000000
4580000012000: system.cpu: Running Insts:      9160000000
4585000012000: system.cpu: Running Insts:      9170000000
4590000012000: system.cpu: Running Insts:      9180000000
4595000012000: system.cpu: Running Insts:      9190000000
4600000012000: system.cpu: Running Insts:      9200000000
4605000012000: system.cpu: Running Insts:      9210000000
4610000012000: system.cpu: Running Insts:      9220000000
4615000012000: system.cpu: Running Insts:      9230000000
4620000012000: system.cpu: Running Insts:      9240000000
4625000012000: system.cpu: Running Insts:      9250000000
4630000012000: system.cpu: Running Insts:      9260000000
4635000012000: system.cpu: Running Insts:      9270000000
4640000012000: system.cpu: Running Insts:      9280000000
4645000012000: system.cpu: Running Insts:      9290000000
4650000012000: system.cpu: Running Insts:      9300000000
4655000012000: system.cpu: Running Insts:      9310000000
4660000012000: system.cpu: Running Insts:      9320000000
4665000012000: system.cpu: Running Insts:      9330000000
4670000012000: system.cpu: Running Insts:      9340000000
4675000012000: system.cpu: Running Insts:      9350000000
4680000012000: system.cpu: Running Insts:      9360000000
4685000012000: system.cpu: Running Insts:      9370000000
4690000012000: system.cpu: Running Insts:      9380000000
4695000012000: system.cpu: Running Insts:      9390000000
4700000012000: system.cpu: Running Insts:      9400000000
4705000012000: system.cpu: Running Insts:      9410000000
4710000012000: system.cpu: Running Insts:      9420000000
4715000012000: system.cpu: Running Insts:      9430000000
4720000012000: system.cpu: Running Insts:      9440000000
4725000012000: system.cpu: Running Insts:      9450000000
4730000012000: system.cpu: Running Insts:      9460000000
4735000012000: system.cpu: Running Insts:      9470000000
4740000012000: system.cpu: Running Insts:      9480000000
4745000012000: system.cpu: Running Insts:      9490000000
4750000012000: system.cpu: Running Insts:      9500000000
4755000012000: system.cpu: Running Insts:      9510000000
4760000012000: system.cpu: Running Insts:      9520000000
4765000012000: system.cpu: Running Insts:      9530000000
4770000012000: system.cpu: Running Insts:      9540000000
4775000012000: system.cpu: Running Insts:      9550000000
4780000012000: system.cpu: Running Insts:      9560000000
4785000012000: system.cpu: Running Insts:      9570000000
4790000012000: system.cpu: Running Insts:      9580000000
4795000012000: system.cpu: Running Insts:      9590000000
4800000012000: system.cpu: Running Insts:      9600000000
4805000012000: system.cpu: Running Insts:      9610000000
4810000012000: system.cpu: Running Insts:      9620000000
4815000012000: system.cpu: Running Insts:      9630000000
4820000012000: system.cpu: Running Insts:      9640000000
4825000012000: system.cpu: Running Insts:      9650000000
4830000012000: system.cpu: Running Insts:      9660000000
4835000012000: system.cpu: Running Insts:      9670000000
4840000012000: system.cpu: Running Insts:      9680000000
4845000012000: system.cpu: Running Insts:      9690000000
4850000012000: system.cpu: Running Insts:      9700000000
4855000012000: system.cpu: Running Insts:      9710000000
4860000012000: system.cpu: Running Insts:      9720000000
4865000012000: system.cpu: Running Insts:      9730000000
4870000012000: system.cpu: Running Insts:      9740000000
4875000012000: system.cpu: Running Insts:      9750000000
4880000012000: system.cpu: Running Insts:      9760000000
4885000012000: system.cpu: Running Insts:      9770000000
4890000012000: system.cpu: Running Insts:      9780000000
4895000012000: system.cpu: Running Insts:      9790000000
4900000012000: system.cpu: Running Insts:      9800000000
4905000012000: system.cpu: Running Insts:      9810000000
4910000012000: system.cpu: Running Insts:      9820000000
4915000012000: system.cpu: Running Insts:      9830000000
4920000012000: system.cpu: Running Insts:      9840000000
4925000012000: system.cpu: Running Insts:      9850000000
4930000012000: system.cpu: Running Insts:      9860000000
4935000012000: system.cpu: Running Insts:      9870000000
4940000012000: system.cpu: Running Insts:      9880000000
4945000012000: system.cpu: Running Insts:      9890000000
4950000012000: system.cpu: Running Insts:      9900000000
4955000012000: system.cpu: Running Insts:      9910000000
4960000012000: system.cpu: Running Insts:      9920000000
4965000012000: system.cpu: Running Insts:      9930000000
4970000012000: system.cpu: Running Insts:      9940000000
4975000012000: system.cpu: Running Insts:      9950000000
4980000012000: system.cpu: Running Insts:      9960000000
4985000012000: system.cpu: Running Insts:      9970000000
4990000012000: system.cpu: Running Insts:      9980000000
4995000012000: system.cpu: Running Insts:      9990000000
5000000012000: system.cpu: Running Insts:     10000000000
5005000012000: system.cpu: Running Insts:     10010000000
5010000012000: system.cpu: Running Insts:     10020000000
5015000012000: system.cpu: Running Insts:     10030000000
5020000012000: system.cpu: Running Insts:     10040000000
5025000012000: system.cpu: Running Insts:     10050000000
5030000012000: system.cpu: Running Insts:     10060000000
5035000012000: system.cpu: Running Insts:     10070000000
5040000012000: system.cpu: Running Insts:     10080000000
5045000012000: system.cpu: Running Insts:     10090000000
5050000012000: system.cpu: Running Insts:     10100000000
5055000012000: system.cpu: Running Insts:     10110000000
5060000012000: system.cpu: Running Insts:     10120000000
5065000012000: system.cpu: Running Insts:     10130000000
5070000012000: system.cpu: Running Insts:     10140000000
5075000012000: system.cpu: Running Insts:     10150000000
5080000012000: system.cpu: Running Insts:     10160000000
5085000012000: system.cpu: Running Insts:     10170000000
5090000012000: system.cpu: Running Insts:     10180000000
5095000012000: system.cpu: Running Insts:     10190000000
5100000012000: system.cpu: Running Insts:     10200000000
5105000012000: system.cpu: Running Insts:     10210000000
5110000012000: system.cpu: Running Insts:     10220000000
5115000012000: system.cpu: Running Insts:     10230000000
5120000012000: system.cpu: Running Insts:     10240000000
5125000012000: system.cpu: Running Insts:     10250000000
5130000012000: system.cpu: Running Insts:     10260000000
5135000012000: system.cpu: Running Insts:     10270000000
5140000012000: system.cpu: Running Insts:     10280000000
5145000012000: system.cpu: Running Insts:     10290000000
5150000012000: system.cpu: Running Insts:     10300000000
5155000012000: system.cpu: Running Insts:     10310000000
5160000012000: system.cpu: Running Insts:     10320000000
5165000012000: system.cpu: Running Insts:     10330000000
5170000012000: system.cpu: Running Insts:     10340000000
5175000012000: system.cpu: Running Insts:     10350000000
5180000012000: system.cpu: Running Insts:     10360000000
5185000012000: system.cpu: Running Insts:     10370000000
5190000012000: system.cpu: Running Insts:     10380000000
5195000012000: system.cpu: Running Insts:     10390000000
5200000012000: system.cpu: Running Insts:     10400000000
5205000012000: system.cpu: Running Insts:     10410000000
5210000012000: system.cpu: Running Insts:     10420000000
5215000012000: system.cpu: Running Insts:     10430000000
5220000012000: system.cpu: Running Insts:     10440000000
5225000012000: system.cpu: Running Insts:     10450000000
5230000012000: system.cpu: Running Insts:     10460000000
5235000012000: system.cpu: Running Insts:     10470000000
5240000012000: system.cpu: Running Insts:     10480000000
5245000012000: system.cpu: Running Insts:     10490000000
5250000012000: system.cpu: Running Insts:     10500000000
5255000012000: system.cpu: Running Insts:     10510000000
5260000012000: system.cpu: Running Insts:     10520000000
5265000012000: system.cpu: Running Insts:     10530000000
5270000012000: system.cpu: Running Insts:     10540000000
5275000012000: system.cpu: Running Insts:     10550000000
5280000012000: system.cpu: Running Insts:     10560000000
5285000012000: system.cpu: Running Insts:     10570000000
5290000012000: system.cpu: Running Insts:     10580000000
5295000012000: system.cpu: Running Insts:     10590000000
5300000012000: system.cpu: Running Insts:     10600000000
5305000012000: system.cpu: Running Insts:     10610000000
5310000012000: system.cpu: Running Insts:     10620000000
5315000012000: system.cpu: Running Insts:     10630000000
5320000012000: system.cpu: Running Insts:     10640000000
5325000012000: system.cpu: Running Insts:     10650000000
5330000012000: system.cpu: Running Insts:     10660000000
5335000012000: system.cpu: Running Insts:     10670000000
5340000012000: system.cpu: Running Insts:     10680000000
5345000012000: system.cpu: Running Insts:     10690000000
5350000012000: system.cpu: Running Insts:     10700000000
5355000012000: system.cpu: Running Insts:     10710000000
5360000012000: system.cpu: Running Insts:     10720000000
5365000012000: system.cpu: Running Insts:     10730000000
5370000012000: system.cpu: Running Insts:     10740000000
5375000012000: system.cpu: Running Insts:     10750000000
5380000012000: system.cpu: Running Insts:     10760000000
5385000012000: system.cpu: Running Insts:     10770000000
5390000012000: system.cpu: Running Insts:     10780000000
5395000012000: system.cpu: Running Insts:     10790000000
5400000012000: system.cpu: Running Insts:     10800000000
5405000012000: system.cpu: Running Insts:     10810000000
5410000012000: system.cpu: Running Insts:     10820000000
5415000012000: system.cpu: Running Insts:     10830000000
5420000012000: system.cpu: Running Insts:     10840000000
5425000012000: system.cpu: Running Insts:     10850000000
5430000012000: system.cpu: Running Insts:     10860000000
5435000012000: system.cpu: Running Insts:     10870000000
5440000012000: system.cpu: Running Insts:     10880000000
5445000012000: system.cpu: Running Insts:     10890000000
5450000012000: system.cpu: Running Insts:     10900000000
5455000012000: system.cpu: Running Insts:     10910000000
5460000012000: system.cpu: Running Insts:     10920000000
5465000012000: system.cpu: Running Insts:     10930000000
5470000012000: system.cpu: Running Insts:     10940000000
5475000012000: system.cpu: Running Insts:     10950000000
5480000012000: system.cpu: Running Insts:     10960000000
5485000012000: system.cpu: Running Insts:     10970000000
5490000012000: system.cpu: Running Insts:     10980000000
5495000012000: system.cpu: Running Insts:     10990000000
5500000012000: system.cpu: Running Insts:     11000000000
5505000012000: system.cpu: Running Insts:     11010000000
5510000012000: system.cpu: Running Insts:     11020000000
5515000012000: system.cpu: Running Insts:     11030000000
5520000012000: system.cpu: Running Insts:     11040000000
5525000012000: system.cpu: Running Insts:     11050000000
5530000012000: system.cpu: Running Insts:     11060000000
5535000012000: system.cpu: Running Insts:     11070000000
5540000012000: system.cpu: Running Insts:     11080000000
5545000012000: system.cpu: Running Insts:     11090000000
5550000012000: system.cpu: Running Insts:     11100000000
5555000012000: system.cpu: Running Insts:     11110000000
5560000012000: system.cpu: Running Insts:     11120000000
5565000012000: system.cpu: Running Insts:     11130000000
5570000012000: system.cpu: Running Insts:     11140000000
5575000012000: system.cpu: Running Insts:     11150000000
5580000012000: system.cpu: Running Insts:     11160000000
5585000012000: system.cpu: Running Insts:     11170000000
5590000012000: system.cpu: Running Insts:     11180000000
5595000012000: system.cpu: Running Insts:     11190000000
5600000012000: system.cpu: Running Insts:     11200000000
5605000012000: system.cpu: Running Insts:     11210000000
5610000012000: system.cpu: Running Insts:     11220000000
5615000012000: system.cpu: Running Insts:     11230000000
5620000012000: system.cpu: Running Insts:     11240000000
5625000012000: system.cpu: Running Insts:     11250000000
5630000012000: system.cpu: Running Insts:     11260000000
5635000012000: system.cpu: Running Insts:     11270000000
5640000012000: system.cpu: Running Insts:     11280000000
5645000012000: system.cpu: Running Insts:     11290000000
5650000012000: system.cpu: Running Insts:     11300000000
5655000012000: system.cpu: Running Insts:     11310000000
5660000012000: system.cpu: Running Insts:     11320000000
5665000012000: system.cpu: Running Insts:     11330000000
5670000012000: system.cpu: Running Insts:     11340000000
5675000012000: system.cpu: Running Insts:     11350000000
5680000012000: system.cpu: Running Insts:     11360000000
5685000012000: system.cpu: Running Insts:     11370000000
5690000012000: system.cpu: Running Insts:     11380000000
5695000012000: system.cpu: Running Insts:     11390000000
5700000012000: system.cpu: Running Insts:     11400000000
5705000012000: system.cpu: Running Insts:     11410000000
5710000012000: system.cpu: Running Insts:     11420000000
5715000012000: system.cpu: Running Insts:     11430000000
5720000012000: system.cpu: Running Insts:     11440000000
5725000012000: system.cpu: Running Insts:     11450000000
5730000012000: system.cpu: Running Insts:     11460000000
5735000012000: system.cpu: Running Insts:     11470000000
5740000012000: system.cpu: Running Insts:     11480000000
5745000012000: system.cpu: Running Insts:     11490000000
5750000012000: system.cpu: Running Insts:     11500000000
5755000012000: system.cpu: Running Insts:     11510000000
5760000012000: system.cpu: Running Insts:     11520000000
5765000012000: system.cpu: Running Insts:     11530000000
5770000012000: system.cpu: Running Insts:     11540000000
5775000012000: system.cpu: Running Insts:     11550000000
5780000012000: system.cpu: Running Insts:     11560000000
5785000012000: system.cpu: Running Insts:     11570000000
5790000012000: system.cpu: Running Insts:     11580000000
5795000012000: system.cpu: Running Insts:     11590000000
5800000012000: system.cpu: Running Insts:     11600000000
5805000012000: system.cpu: Running Insts:     11610000000
5810000012000: system.cpu: Running Insts:     11620000000
5815000012000: system.cpu: Running Insts:     11630000000
5820000012000: system.cpu: Running Insts:     11640000000
5825000012000: system.cpu: Running Insts:     11650000000
5830000012000: system.cpu: Running Insts:     11660000000
5835000012000: system.cpu: Running Insts:     11670000000
5840000012000: system.cpu: Running Insts:     11680000000
5845000012000: system.cpu: Running Insts:     11690000000
5850000012000: system.cpu: Running Insts:     11700000000
5855000012000: system.cpu: Running Insts:     11710000000
5860000012000: system.cpu: Running Insts:     11720000000
5865000012000: system.cpu: Running Insts:     11730000000
5870000012000: system.cpu: Running Insts:     11740000000
5875000012000: system.cpu: Running Insts:     11750000000
5880000012000: system.cpu: Running Insts:     11760000000
5885000012000: system.cpu: Running Insts:     11770000000
5890000012000: system.cpu: Running Insts:     11780000000
5895000012000: system.cpu: Running Insts:     11790000000
5900000012000: system.cpu: Running Insts:     11800000000
5905000012000: system.cpu: Running Insts:     11810000000
5910000012000: system.cpu: Running Insts:     11820000000
5915000012000: system.cpu: Running Insts:     11830000000
5920000012000: system.cpu: Running Insts:     11840000000
5925000012000: system.cpu: Running Insts:     11850000000
5930000012000: system.cpu: Running Insts:     11860000000
5935000012000: system.cpu: Running Insts:     11870000000
5940000012000: system.cpu: Running Insts:     11880000000
5945000012000: system.cpu: Running Insts:     11890000000
5950000012000: system.cpu: Running Insts:     11900000000
5955000012000: system.cpu: Running Insts:     11910000000
5960000012000: system.cpu: Running Insts:     11920000000
5965000012000: system.cpu: Running Insts:     11930000000
5970000012000: system.cpu: Running Insts:     11940000000
5975000012000: system.cpu: Running Insts:     11950000000
5980000012000: system.cpu: Running Insts:     11960000000
5985000012000: system.cpu: Running Insts:     11970000000
5990000012000: system.cpu: Running Insts:     11980000000
5995000012000: system.cpu: Running Insts:     11990000000
6000000012000: system.cpu: Running Insts:     12000000000
6005000012000: system.cpu: Running Insts:     12010000000
6010000012000: system.cpu: Running Insts:     12020000000
6015000012000: system.cpu: Running Insts:     12030000000
6020000012000: system.cpu: Running Insts:     12040000000
6025000012000: system.cpu: Running Insts:     12050000000
6030000012000: system.cpu: Running Insts:     12060000000
6035000012000: system.cpu: Running Insts:     12070000000
6040000012000: system.cpu: Running Insts:     12080000000
6045000012000: system.cpu: Running Insts:     12090000000
6050000012000: system.cpu: Running Insts:     12100000000
6055000012000: system.cpu: Running Insts:     12110000000
6060000012000: system.cpu: Running Insts:     12120000000
6065000012000: system.cpu: Running Insts:     12130000000
6070000012000: system.cpu: Running Insts:     12140000000
6075000012000: system.cpu: Running Insts:     12150000000
6080000012000: system.cpu: Running Insts:     12160000000
6085000012000: system.cpu: Running Insts:     12170000000
6090000012000: system.cpu: Running Insts:     12180000000
6095000012000: system.cpu: Running Insts:     12190000000
6100000012000: system.cpu: Running Insts:     12200000000
6105000012000: system.cpu: Running Insts:     12210000000
6110000012000: system.cpu: Running Insts:     12220000000
6115000012000: system.cpu: Running Insts:     12230000000
6120000012000: system.cpu: Running Insts:     12240000000
6125000012000: system.cpu: Running Insts:     12250000000
6130000012000: system.cpu: Running Insts:     12260000000
6135000012000: system.cpu: Running Insts:     12270000000
6140000012000: system.cpu: Running Insts:     12280000000
6145000012000: system.cpu: Running Insts:     12290000000
6150000012000: system.cpu: Running Insts:     12300000000
6155000012000: system.cpu: Running Insts:     12310000000
6160000012000: system.cpu: Running Insts:     12320000000
6165000012000: system.cpu: Running Insts:     12330000000
6170000012000: system.cpu: Running Insts:     12340000000
6175000012000: system.cpu: Running Insts:     12350000000
6180000012000: system.cpu: Running Insts:     12360000000
6185000012000: system.cpu: Running Insts:     12370000000
6190000012000: system.cpu: Running Insts:     12380000000
6195000012000: system.cpu: Running Insts:     12390000000
6200000012000: system.cpu: Running Insts:     12400000000
6205000012000: system.cpu: Running Insts:     12410000000
6210000012000: system.cpu: Running Insts:     12420000000
6215000012000: system.cpu: Running Insts:     12430000000
6220000012000: system.cpu: Running Insts:     12440000000
6225000012000: system.cpu: Running Insts:     12450000000
6230000012000: system.cpu: Running Insts:     12460000000
6235000012000: system.cpu: Running Insts:     12470000000
6240000012000: system.cpu: Running Insts:     12480000000
6245000012000: system.cpu: Running Insts:     12490000000
6250000012000: system.cpu: Running Insts:     12500000000
6255000012000: system.cpu: Running Insts:     12510000000
6260000012000: system.cpu: Running Insts:     12520000000
6265000012000: system.cpu: Running Insts:     12530000000
6270000012000: system.cpu: Running Insts:     12540000000
6275000012000: system.cpu: Running Insts:     12550000000
6280000012000: system.cpu: Running Insts:     12560000000
6285000012000: system.cpu: Running Insts:     12570000000
6290000012000: system.cpu: Running Insts:     12580000000
6295000012000: system.cpu: Running Insts:     12590000000
6300000012000: system.cpu: Running Insts:     12600000000
6305000012000: system.cpu: Running Insts:     12610000000
6310000012000: system.cpu: Running Insts:     12620000000
6315000012000: system.cpu: Running Insts:     12630000000
6320000012000: system.cpu: Running Insts:     12640000000
6325000012000: system.cpu: Running Insts:     12650000000
6330000012000: system.cpu: Running Insts:     12660000000
6335000012000: system.cpu: Running Insts:     12670000000
6340000012000: system.cpu: Running Insts:     12680000000
6345000012000: system.cpu: Running Insts:     12690000000
6350000012000: system.cpu: Running Insts:     12700000000
6355000012000: system.cpu: Running Insts:     12710000000
6360000012000: system.cpu: Running Insts:     12720000000
6365000012000: system.cpu: Running Insts:     12730000000
6370000012000: system.cpu: Running Insts:     12740000000
6375000012000: system.cpu: Running Insts:     12750000000
6380000012000: system.cpu: Running Insts:     12760000000
6385000012000: system.cpu: Running Insts:     12770000000
6390000012000: system.cpu: Running Insts:     12780000000
6395000012000: system.cpu: Running Insts:     12790000000
6400000012000: system.cpu: Running Insts:     12800000000
6405000012000: system.cpu: Running Insts:     12810000000
6410000012000: system.cpu: Running Insts:     12820000000
6415000012000: system.cpu: Running Insts:     12830000000
6420000012000: system.cpu: Running Insts:     12840000000
6425000012000: system.cpu: Running Insts:     12850000000
6430000012000: system.cpu: Running Insts:     12860000000
6435000012000: system.cpu: Running Insts:     12870000000
6440000012000: system.cpu: Running Insts:     12880000000
6445000012000: system.cpu: Running Insts:     12890000000
6450000012000: system.cpu: Running Insts:     12900000000
6455000012000: system.cpu: Running Insts:     12910000000
6460000012000: system.cpu: Running Insts:     12920000000
6465000012000: system.cpu: Running Insts:     12930000000
6470000012000: system.cpu: Running Insts:     12940000000
6475000012000: system.cpu: Running Insts:     12950000000
6480000012000: system.cpu: Running Insts:     12960000000
6485000012000: system.cpu: Running Insts:     12970000000
6490000012000: system.cpu: Running Insts:     12980000000
6495000012000: system.cpu: Running Insts:     12990000000
6500000012000: system.cpu: Running Insts:     13000000000
6505000012000: system.cpu: Running Insts:     13010000000
6510000012000: system.cpu: Running Insts:     13020000000
6515000012000: system.cpu: Running Insts:     13030000000
6520000012000: system.cpu: Running Insts:     13040000000
6525000012000: system.cpu: Running Insts:     13050000000
6530000012000: system.cpu: Running Insts:     13060000000
6535000012000: system.cpu: Running Insts:     13070000000
6540000012000: system.cpu: Running Insts:     13080000000
6545000012000: system.cpu: Running Insts:     13090000000
6550000012000: system.cpu: Running Insts:     13100000000
6555000012000: system.cpu: Running Insts:     13110000000
6560000012000: system.cpu: Running Insts:     13120000000
6565000012000: system.cpu: Running Insts:     13130000000
6570000012000: system.cpu: Running Insts:     13140000000
6575000012000: system.cpu: Running Insts:     13150000000
6580000012000: system.cpu: Running Insts:     13160000000
6585000012000: system.cpu: Running Insts:     13170000000
6590000012000: system.cpu: Running Insts:     13180000000
6595000012000: system.cpu: Running Insts:     13190000000
6600000012000: system.cpu: Running Insts:     13200000000
6605000012000: system.cpu: Running Insts:     13210000000
6610000012000: system.cpu: Running Insts:     13220000000
6615000012000: system.cpu: Running Insts:     13230000000
6620000012000: system.cpu: Running Insts:     13240000000
6625000012000: system.cpu: Running Insts:     13250000000
6630000012000: system.cpu: Running Insts:     13260000000
6635000012000: system.cpu: Running Insts:     13270000000
6640000012000: system.cpu: Running Insts:     13280000000
6645000012000: system.cpu: Running Insts:     13290000000
6650000012000: system.cpu: Running Insts:     13300000000
6655000012000: system.cpu: Running Insts:     13310000000
6660000012000: system.cpu: Running Insts:     13320000000
6665000012000: system.cpu: Running Insts:     13330000000
6670000012000: system.cpu: Running Insts:     13340000000
6675000012000: system.cpu: Running Insts:     13350000000
6680000012000: system.cpu: Running Insts:     13360000000
6685000012000: system.cpu: Running Insts:     13370000000
6690000012000: system.cpu: Running Insts:     13380000000
6695000012000: system.cpu: Running Insts:     13390000000
6700000012000: system.cpu: Running Insts:     13400000000
6705000012000: system.cpu: Running Insts:     13410000000
[...]
  BIC score: 39233.8
  Distortion: 32.8908
  Distortions/cluster: 2.09922 0.480835 3.01782 2.40223 1.65727 0.295193 5.03661 1.44015 2.67086 1.40438 0.253751 0.913288 4.60684 1.91578 4.6966 
  Variance: 0.0211925
  Variances/cluster: 0.0233247 0.00135066 0.0538896 0.0165671 0.0133651 0.0134178 0.060682 0.028803 0.0105568 0.0319178 0.0149265 0.00661803 0.0535679 0.0407612 0.114551 
  --------------------------------------------------------------
  Initialization seed trial #3 of 5; initialization seed = 493575238
  --------------------------------------------------------------
  Initialized k-means centers using random sampling: 15 centers
  Number of k-means iterations performed: 50
  BIC score: 39916.1
  Distortion: 31.2283
  Distortions/cluster: 0.749713 3.844 2.26141 4.06221 1.81551 3.12791 3.58731 2.06895 0.704339 0.599615 0.665944 0.49811 2.43736 4.59659 0.209288 
  Variance: 0.0201213
  Variances/cluster: 0.0258522 0.0169339 0.0364744 0.119477 0.0378231 0.0440551 0.0194962 0.00841038 0.00828634 0.0181701 0.0162425 0.0249055 0.0406227 0.0686058 0.000606632 
  --------------------------------------------------------------
  Initialization seed trial #4 of 5; initialization seed = 493575239
  --------------------------------------------------------------
  Initialized k-means centers using random sampling: 15 centers
  Number of k-means iterations performed: 22
  BIC score: 40676
  Distortion: 29.1653
  Distortions/cluster: 0.656749 3.0674 3.48627 0.951552 4.59659 2.87331 0.407709 0.15414 3.5626 3.05034 0.494252 1.93173 0.743249 2.59342 0.595994 
  Variance: 0.0187921
  Variances/cluster: 0.0469107 0.0451088 0.0446957 0.00260699 0.0686058 0.0129428 0.00177265 0.010276 0.0481433 0.0476615 0.00617814 0.0603667 0.00701179 0.0480264 0.00718065 
  --------------------------------------------------------------
  Initialization seed trial #5 of 5; initialization seed = 493575240
  --------------------------------------------------------------
  Initialized k-means centers using random sampling: 15 centers
  Number of k-means iterations performed: 53
  BIC score: 38783.1
  Distortion: 34.373
  Distortions/cluster: 5.1321 1.12885 0.253751 0.446568 0.451288 0.415159 0.544817 0.0542937 4.59659 4.7206 4.5517 2.75962 4.60684 3.82395 0.886839 
  Variance: 0.0221475
  Variances/cluster: 0.0610964 0.0305095 0.0149265 0.0148856 0.00578574 0.0172983 0.00518873 0.000890061 0.0686058 0.118015 0.0198764 0.0108647 0.0535679 0.0503151 0.00243637 
  The best initialization seed trial was #4

--------------------------------------------------------------
Run number 4 of at most 7, k = 22
--------------------------------------------------------------
  --------------------------------------------------------------
  Initialization seed trial #1 of 5; initialization seed = 493575241
  --------------------------------------------------------------
  Initialized k-means centers using random sampling: 22 centers
  Number of k-means iterations performed: 44
  BIC score: 43118.7
  Distortion: 21.6647
  Distortions/cluster: 0.959795 2.30831 3.844 0.73575 0.407709 0.423351 0.0015566 0.36909 0.295193 0.474192 0.00018272 0.514267 0.15414 2.98764 0.16108 0.84629 0.772723 0.6157 0.277223 1.40438 3.64676 0.465388 
  Variance: 0.0140225
  Variances/cluster: 0.0259404 0.0366399 0.0169339 0.02725 0.00177265 0.00516282 1.34189e-05 0.020505 0.0134178 0.0152965 1.54848e-06 0.0142852 0.010276 0.0432992 0.00143822 0.0325496 0.00722171 0.0236808 0.00924078 0.0319178 0.121559 0.00589099 
  --------------------------------------------------------------
  Initialization seed trial #2 of 5; initialization seed = 493575242
  --------------------------------------------------------------
  Initialized k-means centers using random sampling: 22 centers
  Number of k-means iterations performed: 41
  BIC score: 42584
  Distortion: 22.848
  Distortions/cluster: 1.79551 1.91578 1.12672 3.12791 0.0346785 0.146511 0.044519 0.649149 0.120722 0.0646923 2.57368 0.874196 2.17414 0.00421412 1.40438 1.50713 0.797366 0.36958 0.881649 2.40176 0.295193 0.538484 
  Variance: 0.0147883
  Variances/cluster: 0.0513002 0.0407612 0.0433354 0.0440551 0.00495407 0.00130813 0.000203283 0.0223845 0.00862299 0.00588112 0.0192066 0.0312213 0.0161047 1.8009e-05 0.0319178 0.0358841 0.00895917 0.0307983 0.00657947 0.0381232 0.0134178 0.0145536 
  --------------------------------------------------------------
  Initialization seed trial #3 of 5; initialization seed = 493575243
  --------------------------------------------------------------
  Initialized k-means centers using random sampling: 22 centers
  Number of k-means iterations performed: 28
  BIC score: 44919.9
  Distortion: 18.8258
  Distortions/cluster: 0.295193 1.2599 0.15414 2.98764 0.0595257 0.540328 0.224348 0.664894 2.43736 0.121595 0.57422 0.781288 1.40438 0.423351 0.407709 0.36958 1.12885 0.359734 2.22524 0.727533 1.46974 0.209288 
  Variance: 0.012185
  Variances/cluster: 0.0134178 0.0449965 0.010276 0.0432992 0.00496048 0.0108066 0.00329924 0.0277039 0.0406227 0.00213324 0.0147236 0.00679381 0.0319178 0.00516282 0.00177265 0.0307983 0.0305095 0.0128476 0.035891 0.00692888 0.0358472 0.000606632 
  --------------------------------------------------------------
  Initialization seed trial #4 of 5; initialization seed = 493575244
  --------------------------------------------------------------
  Initialized k-means centers using random sampling: 22 centers
  Number of k-means iterations performed: 48
  BIC score: 45044.6
  Distortion: 18.6203
  Distortions/cluster: 0.407709 1.85388 0.295193 2.43736 0.423351 2.17078 1.28752 0.498597 0.637828 0.384843 0.669563 0.0501097 0.36958 0.327945 0.190932 0.15414 1.12885 0.117759 1.09537 0.465858 3.12791 0.525272 
  Variance: 0.012052
  Variances/cluster: 0.00177265 0.0319634 0.0134178 0.0406227 0.00516282 0.0355865 0.0459828 0.0160838 0.0193281 0.00712672 0.0018599 0.000963649 0.0307983 0.0163972 0.00173574 0.010276 0.0305095 0.00210284 0.0391203 0.00589693 0.0440551 0.011419 
  --------------------------------------------------------------
  Initialization seed trial #5 of 5; initialization seed = 493575245
  --------------------------------------------------------------
  Initialized k-means centers using random sampling: 22 centers
  Number of k-means iterations performed: 40
  BIC score: 39570.9
  Distortion: 29.0677
  Distortions/cluster: 0.0542937 3.36204e-05 0.15414 0.905152 1.12885 4.59659 3.48185e-05 0.36909 0.235671 0.359734 0.6103 0.16108 4.60684 0.0015379 0.50073 0.243268 2.76584 1.4301 4.06221 1.79506 0.222262 4.86491 
  Variance: 0.0188141
  Variances/cluster: 0.000890061 4.36629e-07 0.010276 0.00660695 0.0305095 0.0686058 8.49232e-07 0.020505 0.0196393 0.0128476 0.0160605 0.00143822 0.0535679 1.3373e-05 0.00486146 0.0105769 0.0108464 0.0160686 0.119477 0.0381927 0.00326855 0.0593282 
  The best initialization seed trial was #4

--------------------------------------------------------------
Run number 5 of at most 7, k = 18
--------------------------------------------------------------
  --------------------------------------------------------------
  Initialization seed trial #1 of 5; initialization seed = 493575246
  --------------------------------------------------------------
  Initialized k-means centers using random sampling: 18 centers
  Number of k-means iterations performed: 38
  BIC score: 40577.1
  Distortion: 28.2593
  Distortions/cluster: 1.79506 1.40438 0.359734 0.36909 4.77524 0.743249 4.06221 4.60684 0.595994 0.16108 3.844 0.494252 0.15414 0.6103 0.00457493 0.295193 1.12885 2.85508 
  Variance: 0.0182436
  Variances/cluster: 0.0381927 0.0319178 0.0128476 0.020505 0.0589536 0.00701179 0.119477 0.0535679 0.00718065 0.00143822 0.0169339 0.00617814 0.010276 0.0160605 1.94678e-05 0.0134178 0.0305095 0.0111526 
  --------------------------------------------------------------
  Initialization seed trial #2 of 5; initialization seed = 493575247
  --------------------------------------------------------------
  Initialized k-means centers using random sampling: 18 centers
  Number of k-means iterations performed: 23
  BIC score: 42113.3
  Distortion: 24.8165
  Distortions/cluster: 0.683612 0.407709 1.59652 2.80311 0.881649 0.874196 0.743249 3.18113 1.04524 2.65782 0.423351 0.15414 2.85055 2.99376 0.494252 0.449603 1.10461 1.47197 
  Variance: 0.016021
  Variances/cluster: 0.00776831 0.00177265 0.0354782 0.0500555 0.00657947 0.0312213 0.00701179 0.0530189 0.0275063 0.0390856 0.00516282 0.010276 0.118773 0.04536 0.00617814 0.00126649 0.0245468 0.0507577 
  --------------------------------------------------------------
  Initialization seed trial #3 of 5; initialization seed = 493575248
  --------------------------------------------------------------
  Initialized k-means centers using random sampling: 18 centers
  Number of k-means iterations performed: 16
  BIC score: 39948.8
  Distortion: 30.0218
  Distortions/cluster: 0.449603 0.113933 0.773424 0.423351 1.23627 1.10461 0.15414 3.2728 2.80311 1.39111 0.157885 0.881649 5.2353 0.683612 1.91578 6.55359 0.0211164 2.85055 
  Variance: 0.0193814
  Variances/cluster: 0.00126649 0.0035604 0.00722827 0.00516282 0.00515113 0.0245468 0.010276 0.0536525 0.0500555 0.0496823 0.00343228 0.00657947 0.0575308 0.00776831 0.0407612 0.0675628 0.0211164 0.118773 
  --------------------------------------------------------------
  Initialization seed trial #4 of 5; initialization seed = 493575249
  --------------------------------------------------------------
  Initialized k-means centers using random sampling: 18 centers
  Number of k-means iterations performed: 24
  BIC score: 41693.4
  Distortion: 26.051
  Distortions/cluster: 0.597698 1.89783 0.789879 3.32628 0.36958 0.0211164 0.407709 0.713449 1.02916 2.98236 0.15414 0.819525 3.96742 1.93173 0.874196 3.5626 0.605084 2.00128 
  Variance: 0.016818
  Variances/cluster: 0.00456258 0.0431326 0.0089759 0.0206601 0.0307983 0.0211164 0.00177265 0.0203843 0.00281192 0.0445128 0.010276 0.0075882 0.0483832 0.0603667 0.0312213 0.0481433 0.0232725 0.0408424 
  --------------------------------------------------------------
  Initialization seed trial #5 of 5; initialization seed = 493575250
  --------------------------------------------------------------
  Initialized k-means centers using random sampling: 18 centers
  Number of k-means iterations performed: 40
  BIC score: 41095.9
  Distortion: 27.3682
  Distortions/cluster: 1.79352e-33 4.15748 2.35208 1.3928 1.11916 0.84629 0.726957 1.73791 0.451288 0.423351 0.209288 4.59659 0.653159 0.36909 3.844 1.51267 0.772723 2.20332 
  Variance: 0.0176683
  Variances/cluster: 0 0.118785 0.0443788 0.0236068 0.00468267 0.0325496 0.016906 0.0482754 0.00578574 0.00516282 0.000606632 0.0686058 0.0176529 0.020505 0.0169339 0.0343789 0.00722171 0.0415721 
  The best initialization seed trial was #2

--------------------------------------------------------------
Run number 6 of at most 7, k = 20
--------------------------------------------------------------
  --------------------------------------------------------------
  Initialization seed trial #1 of 5; initialization seed = 493575251
  --------------------------------------------------------------
  Initialized k-means centers using random sampling: 20 centers
  Number of k-means iterations performed: 27
  BIC score: 39425
  Distortion: 30.1749
  Distortions/cluster: 0.474192 4.16926 3.16679 0.318181 0.499009 1.4626 0.704339 4.09993e-05 0.6157 0.928286 2.43018 0.277223 3.58731 0.16108 0.0015379 1.12114 5.04086 0.6103 4.60684 2.76698e-05 
  Variance: 0.0195054
  Variances/cluster: 0.0152965 0.0154991 0.117289 0.00248579 0.0277227 0.0541704 0.00828634 8.91289e-07 0.0236808 0.01067 0.0467341 0.00924078 0.0194962 0.00143822 1.3373e-05 0.0361657 0.0607332 0.0160605 0.0535679 3.84303e-07 
  --------------------------------------------------------------
  Initialization seed trial #2 of 5; initialization seed = 493575252
  --------------------------------------------------------------
  Initialized k-means centers using random sampling: 20 centers
  Number of k-means iterations performed: 15
  BIC score: 41309
  Distortion: 26.1734
  Distortions/cluster: 0.451288 2.48865 1.59652 4.05479 0.0346785 1.19331 0.946104 0.544817 4.59659 0.601035 2.5518 0.120722 0.0542937 0.0815422 2.09922 0.913288 0.243268 2.20332 0.449603 0.948508 
  Variance: 0.0169188
  Variances/cluster: 0.00578574 0.0478587 0.0354782 0.112633 0.00495407 0.0213091 0.0286698 0.00518873 0.0686058 0.00262461 0.0481472 0.00862299 0.000890061 0.0101928 0.0233247 0.00661803 0.0105769 0.0415721 0.00126649 0.021557 
  --------------------------------------------------------------
  Initialization seed trial #3 of 5; initialization seed = 493575253
  --------------------------------------------------------------
  Initialized k-means centers using random sampling: 20 centers
  Number of k-means iterations performed: 31
  BIC score: 42250
  Distortion: 24.1113
  Distortions/cluster: 0.959795 3.64676 2.30831 1.12885 0.494252 0.565365 0.359734 0.743249 2.98764 0.192714 0.423351 0.120722 0.36909 1.4301 0.0346785 0.905152 0.209288 0.73575 4.59659 1.8999 
  Variance: 0.0155858
  Variances/cluster: 0.0259404 0.121559 0.0366399 0.0305095 0.00617814 0.0144965 0.0128476 0.00701179 0.0432992 0.000864188 0.00516282 0.00862299 0.020505 0.0160686 0.00495407 0.00660695 0.000606632 0.02725 0.0686058 0.0387735 
  --------------------------------------------------------------
  Initialization seed trial #4 of 5; initialization seed = 493575254
  --------------------------------------------------------------
  Initialized k-means centers using random sampling: 20 centers
  Number of k-means iterations performed: 28
  BIC score: 42283.5
  Distortion: 23.8142
  Distortions/cluster: 0.84629 0.36909 1.65727 0.683612 2.14801 0.474192 2.40223 0.407709 0.277223 0.00457493 2.43736 1.13845 0.6157 2.98764 0.16108 2.85055 2.80311 0.15414 0.881649 0.514267 
  Variance: 0.0153938
  Variances/cluster: 0.0325496 0.020505 0.0133651 0.00776831 0.0352132 0.0152965 0.0165671 0.00177265 0.00924078 1.94678e-05 0.0406227 0.0421649 0.0236808 0.0432992 0.00143822 0.118773 0.0500555 0.010276 0.00657947 0.0142852 
  --------------------------------------------------------------
  Initialization seed trial #5 of 5; initialization seed = 493575255
  --------------------------------------------------------------
  Initialized k-means centers using random sampling: 20 centers
  Number of k-means iterations performed: 25
  BIC score: 40400.5
  Distortion: 28.6043
  Distortions/cluster: 3.12791 0.874196 3.84424 0.117755 0.449603 0 1.10461 2.52511 0.15414 0.551658 3.2728 0.228984 4.5517 4.59659 0.423351 1.91578 0.649149 0.113933 0.0646923 0.0381495 
  Variance: 0.0184902
  Variances/cluster: 0.0440551 0.0312213 0.113066 0.00267624 0.00126649 0 0.0245468 0.0394549 0.010276 0.0056872 0.0536525 0.0010177 0.0198764 0.0686058 0.00516282 0.0407612 0.0223845 0.0035604 0.00588112 0.00346814 
  The best initialization seed trial was #4

--------------------------------------------------------------
Run number 7 of at most 7, k = 21
--------------------------------------------------------------
  --------------------------------------------------------------
  Initialization seed trial #1 of 5; initialization seed = 493575256
  --------------------------------------------------------------
  Initialized k-means centers using random sampling: 21 centers
  Number of k-means iterations performed: 11
  BIC score: 39152.5
  Distortion: 31.3275
  Distortions/cluster: 4.26015 0.0381495 0.36958 0.423351 0.0274088 7.75941 0.207128 3.91674 0.881649 4.83844 0.192714 0.0961776 0.117755 4.59659 0.113933 0.00249054 0.73575 0.951552 0.959795 0.797366 0.0413606 
  Variance: 0.0202636
  Variances/cluster: 0.0507161 0.00346814 0.0307983 0.00516282 0.00548176 0.10777 0.00460285 0.051536 0.00657947 0.0645126 0.000864188 0.00739828 0.00267624 0.0686058 0.0035604 0.00124527 0.02725 0.00260699 0.0259404 0.00895917 0.000810992 
  --------------------------------------------------------------
  Initialization seed trial #2 of 5; initialization seed = 493575257
  --------------------------------------------------------------
  Initialized k-means centers using random sampling: 21 centers
  Number of k-means iterations performed: 9
  BIC score: 41610.7
  Distortion: 25.1875
  Distortions/cluster: 0.0015379 0.36958 1.89783 6.92933 0.15414 0.464251 0.640235 0.874196 2.40176 0.16108 2.76698e-05 4.09993e-05 1.39209 1.12672 2.69269 0.605084 0.6103 0.959795 0.690345 2.80874 0.407709 
  Variance: 0.016292
  Variances/cluster: 1.3373e-05 0.0307983 0.0431326 0.0256642 0.010276 0.0149758 0.0168483 0.0312213 0.0381232 0.00143822 3.84303e-07 8.91289e-07 0.040944 0.0433354 0.0407983 0.0232725 0.0160605 0.0259404 0.030015 0.012767 0.00177265 
  --------------------------------------------------------------
  Initialization seed trial #3 of 5; initialization seed = 493575258
  --------------------------------------------------------------
  Initialized k-means centers using random sampling: 21 centers
  Number of k-means iterations performed: 17
  BIC score: 40885
  Distortion: 26.9239
  Distortions/cluster: 0.683612 0.0381495 2.85055 3.228 0.000673696 0.0478705 0.192714 3.96742 2.00128 3.0674 0.0176069 3.5626 0.253768 2.80311 0.120722 0.0346785 0.881649 0.0441339 0.16708 1.93173 1.02916 
  Variance: 0.0174152
  Variances/cluster: 0.00776831 0.00346814 0.118773 0.0496615 1.56674e-05 0.00435186 0.000864188 0.0483832 0.0408424 0.0451088 0.000352137 0.0481433 0.0105737 0.0500555 0.00862299 0.00495407 0.00657947 0.000735566 0.00257046 0.0603667 0.00281192 
  --------------------------------------------------------------
  Initialization seed trial #4 of 5; initialization seed = 493575259
  --------------------------------------------------------------
  Initialized k-means centers using random sampling: 21 centers
  Number of k-means iterations performed: 39
  BIC score: 40657.5
  Distortion: 27.494
  Distortions/cluster: 0.0346785 0.649149 0 0.120722 1.65727 0.0174808 0.359734 2.30831 4.59659 1.12885 0.0646923 3.64676 1.79506 2.40223 0.36909 0.00457493 2.98764 0.73575 3.844 0.16108 0.6103 
  Variance: 0.0177839
  Variances/cluster: 0.00495407 0.0223845 0 0.00862299 0.0133651 8.0187e-05 0.0128476 0.0366399 0.0686058 0.0305095 0.00588112 0.121559 0.0381927 0.0165671 0.020505 1.94678e-05 0.0432992 0.02725 0.0169339 0.00143822 0.0160605 
  --------------------------------------------------------------
  Initialization seed trial #5 of 5; initialization seed = 493575260
  --------------------------------------------------------------
  Initialized k-means centers using random sampling: 21 centers
  Number of k-means iterations performed: 22
  BIC score: 38713.1
  Distortion: 31.7715
  Distortions/cluster: 0.514022 4.77524 2.61101 4.09993e-05 1.32533 4.06221 3.58731 0.000852205 0.679683 4.59659 0.0270923 0.905152 0.0346785 1.12885 0.120722 4.60684 0.169378 2.76698e-05 0.875553 1.4301 0.320845 
  Variance: 0.0205508
  Variances/cluster: 0.0183579 0.0589536 0.010486 8.91289e-07 0.0358197 0.119477 0.0194962 7.60898e-06 0.0295514 0.0686058 0.000260503 0.00660695 0.00495407 0.0305095 0.00862299 0.0535679 0.00651455 3.84303e-07 0.0101808 0.0160686 0.0118832 
  The best initialization seed trial was #2

------------------------------------------------------------------
------------------------------------------------------------------
Post-processing runs
------------------------------------------------------------------
------------------------------------------------------------------
  For the BIC threshold, the best clustering was run 4 (k = 22)
  Post-processing run 4 (k = 22)
    Saving simpoints of all non-empty clusters to file '/home/cuihongwei/experiment/simpoint/401.bzip2/arm-401.bzip2-input2-190517-230249/simpoint_file'
    Saving weights of all non-empty clusters to file '/home/cuihongwei/experiment/simpoint/401.bzip2/arm-401.bzip2-input2-190517-230249/weight_file'
